LAMMPS (29 Sep 2021 - Update 2)
# Compute elastic constant tensor for a crystal at finite temperature
#
# WARNING: This script attempts to measure small differences in
# statistical averages generated by finite temperature MD simulations.
# This creates many more opportunities for errors to occur, compared
# to the zero temperature version provided in examples/ELASTIC.
# Hence, it is always a good idea to start with the zero temperature
# calculation, before attempting to use this script.
#
# Written by Aidan Thompson (Sandia, athomps@sandia.gov)
#
#  This script uses the following three include files.
#
#   init.mod      (must be modified for different crystal structures)
# 	       	  Define units, MD parameters, deformation parameters,
#		  and initial configuration of the atoms and simulation cell.
#
#
#   potential.mod    (must be modified for different pair styles)
# 		     Define pair style and other attributes
#		     not stored in restart file
#
#
#   displace.mod    (displace.mod should not need to be modified)
# 		    Perform positive and negative box displacements
# 		    It uses the resultant changes
#		    in stress to compute one
# 		    row of the elastic stiffness tensor
#
#		    Inputs variables:
#		    	   dir = the Voigt deformation component
#		    		    (1,2,3,4,5,6)
#		    Global constants:
#       	    	   up = the deformation magnitude (strain units)
#       		   cfac = conversion from LAMMPS pressure units to
#               	   output units for elastic constants
#
#
#  To run this on a different system, it should only be necessary to
#  modify the files init.mod and potential.mod. In order to calculate
#  the elastic constants correctly, care must be taken to specify
#  the correct units in init.mod (units, cfac and cunits). It is also
#  important to verify that the MD sampling of stress components
#  is generating accurate statistical averages.
#  One indication of this is that the elastic constants are insensitive
#  check for finite size effects.
#

# include init.mod

# NOTE: This script can be modified for different atomic structures,
# units, etc. See in.elastic for more info.
#

# Define the finite deformation size. Try several values of this
# variable to verify that results do not depend on it.
variable up equal 2.0e-2

# real units, elastic constants in GPa
units		metal
atom_style atomic
variable cfac equal 1.0e-4
variable cunits string GPa

# Define MD parameters
variable nevery equal 10                  # sampling interval
variable nrepeat equal 10                 # number of samples
variable nfreq equal 10*10
variable nthermo equal 100
variable nequil equal 10*100
variable nrun equal 3*100
variable temp equal 300                   # temperature of initial sample
variable timestep equal 0.0001             # timestep
variable adiabatic equal 2                # adiabatic (1) or isothermal (2)
variable tdamp equal 0.007                 # time constant for thermostat
variable seed equal 123457                # seed for thermostat

# generate the box and atom positions using a diamond lattice
variable a equal 5.431

boundary	p p p
newton off

box tilt large
read_data tob9_ref_deepmd.data
Reading data file ...
  triclinic box = (0.0000000 0.0000000 0.0000000) to (11.114968 7.4513556 9.3746986) with tilt (-0.17419075 -0.15353827 -1.9248620)
  reading atoms ...
  62 atoms

pair_style	nequip
pair_coeff	* * tob9_l3-deployed.pth Ca H O Si
mass            1 40.079800
mass            4 28.08500
mass            3 15.9994
mass            2 1.00794

change_box all triclinic
Changing box ...
  triclinic box = (0.0000000 0.0000000 0.0000000) to (11.114968 7.4513556 9.3746986) with tilt (-0.17419075 -0.15353827 -1.9248620)

velocity	all create 300 87287

thermo 100
min_style cg
minimize 1.0e-15 1.0e-15 100000 100000 #设置能量最小化
  update every 1 steps, delay 0 steps, check yes
Step Temp E_pair E_mol TotEng Press
0          300   -451.13785            0   -448.77239     23966.52
Loop time of 14.9959 on 1 procs for 35 steps with 62 atoms

Minimization stats:
  Stopping criterion = energy tolerance
  Energy initial, next-to-last, final =
  Force two-norm initial, final = 21.279052 0.077047243
  Force max component initial, final = 7.1931992 0.023699572
  Final line search alpha, max atom move = 1.0000000 0.023699572
  Iterations, force evaluations = 35 70

thermo_style  custom step temp press etotal lx ly lz xy yz xz pxx pyy pzz

#timestep 0.0001

#fix 456 all nve
#fix 567 all langevin 300.0 300.0 0.1 12345

#run 5000

#unfix 456
#unfix 567
fix 123 all npt temp 300 300 0.1 iso 1.0 1.0 0.1
run 10000
Step Temp Press TotEng Lx Ly Lz Xy Yz Xz Pxx Pyy Pzz
35          300    4090.9243   -454.09883    11.114968    7.4513556    9.3746986  -0.17419075    -1.924862  -0.15353827    11579.752   -5333.6806    6026.7009
Averages over the last 51 of 102 rows, steps 5100 to 10035:
Temp Press TotEng Lx Ly Lz Xy Yz Xz Pxx Pyy Pzz
307.928 -1757.67 -451.514 11.1616 7.48264 9.41406 -0.174922 -1.93294 -0.154183 9139.51 -15922.8 1510.26
Loop time of 2614.46 on 1 procs for 10000 steps with 62 atoms

unfix 123

# Compute initial state

variable thermostat equal 0
include potential.mod
# NOTE: This script can be modified for different pair styles
# See in.elastic for more info.

# we must undefine any fix ave/* fix before using reset_timestep
if "$(is_defined(fix,avp))" then "unfix avp"
reset_timestep 0

newton off

# Choose potential
# pair_style	sw
# pair_coeff * * Si.sw Si
pair_style	nequip
pair_coeff	* * tob9_l3-deployed.pth Ca H O Si

atom_modify sort 0 0.0
#kspace_style	ewald 1.0e-6# Setup neighbor style

neighbor 2.0 bin
neigh_modify once no every 1 delay 0 check yes

# Setup output

fix avp all ave/time  10 10 100 c_thermo_press mode vector

#min_style cg
#minimize 1.0e-15 1.0e-15 100000 100000 #设置能量最小化

thermo		100
thermo_style custom step temp pe press f_avp[1] f_avp[2] f_avp[3] f_avp[4] f_avp[5] f_avp[6]
thermo_modify norm no

# Setup MD

timestep 0.0001
fix 4 all nve

run 1000
Step Temp PotEng Press f_avp[1] f_avp[2] f_avp[3] f_avp[4] f_avp[5] f_avp[6]
0    273.76354   -454.13351   -2965.5648            0            0            0            0            0            0
Averages over the last 6 of 11 rows, steps 500 to 1000:
Temp PotEng Press f_avp[1] f_avp[2] f_avp[3] f_avp[4] f_avp[5] f_avp[6]
265.539 -454.069 916.44 15776.1 -16107.8 6002.5 8044.76 -2918.05 -1578.99
Loop time of 445.265 on 1 procs for 1000 steps with 62 atoms

variable thermostat equal 1

print 1
1

include potential.mod
# NOTE: This script can be modified for different pair styles
# See in.elastic for more info.

# we must undefine any fix ave/* fix before using reset_timestep
if "$(is_defined(fix,avp))" then "unfix avp"
unfix avp
reset_timestep 0

newton off

# Choose potential
# pair_style	sw
# pair_coeff * * Si.sw Si
pair_style	nequip
pair_coeff	* * tob9_l3-deployed.pth Ca H O Si

atom_modify sort 0 0.0
#kspace_style	ewald 1.0e-6# Setup neighbor style

neighbor 2.0 bin
neigh_modify once no every 1 delay 0 check yes

# Setup output

fix avp all ave/time  10 10 100 c_thermo_press mode vector

#min_style cg
#minimize 1.0e-15 1.0e-15 100000 100000 #设置能量最小化

thermo		100
thermo_style custom step temp pe press f_avp[1] f_avp[2] f_avp[3] f_avp[4] f_avp[5] f_avp[6]
thermo_modify norm no

# Setup MD

timestep 0.0001
fix 4 all nve
fix 5 all langevin 300 300 0.007 123457

run 300
Step Temp PotEng Press f_avp[1] f_avp[2] f_avp[3] f_avp[4] f_avp[5] f_avp[6]
0    274.72633   -454.14114    3610.1868            0            0            0            0            0            0
Loop time of 139.705 on 1 procs for 300 steps with 62 atoms

variable pxx0 equal f_avp[1]
variable pyy0 equal f_avp[2]
variable pzz0 equal f_avp[3]
variable pxy0 equal f_avp[4]
variable pxz0 equal f_avp[5]
variable pyz0 equal f_avp[6]

variable tmp equal lx
variable lx0 equal 11.1454593341562
variable tmp equal ly
variable ly0 equal 7.47179647029971
variable tmp equal lz
variable lz0 equal 9.4004157087544

# These formulas define the derivatives w.r.t. strain components
# Constants uses $, variables use v_
variable d1 equal -(v_pxx1-16592.7630644179)/(v_delta/v_len0)*0.0001
variable d2 equal -(v_pyy1--12002.9251781502)/(v_delta/v_len0)*0.0001
variable d3 equal -(v_pzz1-16387.774554072)/(v_delta/v_len0)*0.0001
variable d4 equal -(v_pyz1--705.418160540458)/(v_delta/v_len0)*0.0001
variable d5 equal -(v_pxz1--547.324670051207)/(v_delta/v_len0)*0.0001
variable d6 equal -(v_pxy1-9334.97072123157)/(v_delta/v_len0)*0.0001

# Write restart
write_restart restart.equil
System init for write_restart ...

# uxx Perturbation

variable dir equal 1
include displace.mod
# NOTE: This script should not need to be
# modified. See in.elastic for more info.
#
# Find which reference length to use

variable len0 equal 11.1454593341562

# Reset box and simulation parameters

clear
box tilt large
read_restart restart.equil
Reading restart file ...
  restart file = 29 Sep 2021, LAMMPS = 29 Sep 2021
  restoring atom style atomic from restart
  triclinic box = (-0.015245552 -0.010220454 -0.012858557) to (11.130214 7.4615760 9.3875572) with tilt (-0.17466860 -0.15395947 -1.9301423)
  pair style nequip stores no restart info
  62 atoms
  read_restart CPU = 0.000 seconds
include potential.mod
# NOTE: This script can be modified for different pair styles
# See in.elastic for more info.

# we must undefine any fix ave/* fix before using reset_timestep
if "$(is_defined(fix,avp))" then "unfix avp"
reset_timestep 0

newton off

# Choose potential
# pair_style	sw
# pair_coeff * * Si.sw Si
pair_style	nequip
pair_coeff	* * tob9_l3-deployed.pth Ca H O Si

atom_modify sort 0 0.0
#kspace_style	ewald 1.0e-6# Setup neighbor style

neighbor 2.0 bin
neigh_modify once no every 1 delay 0 check yes

# Setup output

fix avp all ave/time  10 10 100 c_thermo_press mode vector

#min_style cg
#minimize 1.0e-15 1.0e-15 100000 100000 #设置能量最小化

thermo		100
thermo_style custom step temp pe press f_avp[1] f_avp[2] f_avp[3] f_avp[4] f_avp[5] f_avp[6]
thermo_modify norm no

# Setup MD

timestep 0.0001
fix 4 all nve
fix 5 all langevin 300 300 0.007 123457

# Negative deformation

variable delta equal -0.02*11.1454593341562
variable deltaxy equal -0.02*xy
variable deltaxz equal -0.02*xz
variable deltayz equal -0.02*yz
change_box all x delta 0 -0.222909186683124 xy delta 0.00349337200423057 xz delta 0.00307918930486666 remap units box
Changing box ...
  triclinic box = (-0.015245552 -0.010220454 -0.012858557) to (10.907305 7.4615760 9.3875572) with tilt (-0.17466860 -0.15395947 -1.9301423)
  triclinic box = (-0.015245552 -0.010220454 -0.012858557) to (10.907305 7.4615760 9.3875572) with tilt (-0.17117523 -0.15395947 -1.9301423)
  triclinic box = (-0.015245552 -0.010220454 -0.012858557) to (10.907305 7.4615760 9.3875572) with tilt (-0.17117523 -0.15088028 -1.9301423)

# Run MD

run 1000
  update every 1 steps, delay 0 steps, check yes
Step Temp PotEng Press f_avp[1] f_avp[2] f_avp[3] f_avp[4] f_avp[5] f_avp[6]
0    302.88291   -453.75873    41894.806            0            0            0            0            0            0
Averages over the last 6 of 11 rows, steps 500 to 1000:
Temp PotEng Press f_avp[1] f_avp[2] f_avp[3] f_avp[4] f_avp[5] f_avp[6]
290.767 -453.537 23991.9 51110.4 1227.3 21663.3 14998.3 -4223.09 -2077.04
Loop time of 451.51 on 1 procs for 1000 steps with 62 atoms

include potential.mod
# NOTE: This script can be modified for different pair styles
# See in.elastic for more info.

# we must undefine any fix ave/* fix before using reset_timestep
if "$(is_defined(fix,avp))" then "unfix avp"
unfix avp
reset_timestep 0

newton off

# Choose potential
# pair_style	sw
# pair_coeff * * Si.sw Si
pair_style	nequip
pair_coeff	* * tob9_l3-deployed.pth Ca H O Si

atom_modify sort 0 0.0
#kspace_style	ewald 1.0e-6# Setup neighbor style

neighbor 2.0 bin
neigh_modify once no every 1 delay 0 check yes

# Setup output

fix avp all ave/time  10 10 100 c_thermo_press mode vector

#min_style cg
#minimize 1.0e-15 1.0e-15 100000 100000 #设置能量最小化

thermo		100
thermo_style custom step temp pe press f_avp[1] f_avp[2] f_avp[3] f_avp[4] f_avp[5] f_avp[6]
thermo_modify norm no

# Setup MD

timestep 0.0001
fix 4 all nve
fix 5 all langevin 300 300 0.007 123457

run 300
Step Temp PotEng Press f_avp[1] f_avp[2] f_avp[3] f_avp[4] f_avp[5] f_avp[6]
0    274.23733     -453.366    14241.622            0            0            0            0            0            0
Loop time of 136.119 on 1 procs for 300 steps with 62 atoms

# Obtain new stress tensor

variable pxx1 equal f_avp[1]
variable pyy1 equal f_avp[2]
variable pzz1 equal f_avp[3]
variable pxy1 equal f_avp[4]
variable pxz1 equal f_avp[5]
variable pyz1 equal f_avp[6]

# Compute elastic constant from pressure tensor

variable C1neg equal 185.237308758518
variable C2neg equal 33.7206274241414
variable C3neg equal 0.235542258691512
variable C4neg equal -16.5587850204896
variable C5neg equal -10.7923242482301
variable C6neg equal 5.67132910015815

# Reset box and simulation parameters

clear
box tilt large
read_restart restart.equil
Reading restart file ...
  restart file = 29 Sep 2021, LAMMPS = 29 Sep 2021
  restoring atom style atomic from restart
  triclinic box = (-0.015245552 -0.010220454 -0.012858557) to (11.130214 7.4615760 9.3875572) with tilt (-0.17466860 -0.15395947 -1.9301423)
  pair style nequip stores no restart info
  62 atoms
  read_restart CPU = 0.000 seconds
include potential.mod
# NOTE: This script can be modified for different pair styles
# See in.elastic for more info.

# we must undefine any fix ave/* fix before using reset_timestep
if "$(is_defined(fix,avp))" then "unfix avp"
reset_timestep 0

newton off

# Choose potential
# pair_style	sw
# pair_coeff * * Si.sw Si
pair_style	nequip
pair_coeff	* * tob9_l3-deployed.pth Ca H O Si

atom_modify sort 0 0.0
#kspace_style	ewald 1.0e-6# Setup neighbor style

neighbor 2.0 bin
neigh_modify once no every 1 delay 0 check yes

# Setup output

fix avp all ave/time  10 10 100 c_thermo_press mode vector

#min_style cg
#minimize 1.0e-15 1.0e-15 100000 100000 #设置能量最小化

thermo		100
thermo_style custom step temp pe press f_avp[1] f_avp[2] f_avp[3] f_avp[4] f_avp[5] f_avp[6]
thermo_modify norm no

# Setup MD

timestep 0.0001
fix 4 all nve
fix 5 all langevin 300 300 0.007 123457

# Positive deformation

variable delta equal 0.02*11.1454593341562
variable deltaxy equal 0.02*xy
variable deltaxz equal 0.02*xz
variable deltayz equal 0.02*yz
change_box all x delta 0 0.222909186683124 xy delta -0.00349337200423057 xz delta -0.00307918930486666 remap units box
Changing box ...
  triclinic box = (-0.015245552 -0.010220454 -0.012858557) to (11.353123 7.4615760 9.3875572) with tilt (-0.17466860 -0.15395947 -1.9301423)
  triclinic box = (-0.015245552 -0.010220454 -0.012858557) to (11.353123 7.4615760 9.3875572) with tilt (-0.17816197 -0.15395947 -1.9301423)
  triclinic box = (-0.015245552 -0.010220454 -0.012858557) to (11.353123 7.4615760 9.3875572) with tilt (-0.17816197 -0.15703865 -1.9301423)

# Run MD

run 1000
  update every 1 steps, delay 0 steps, check yes
Step Temp PotEng Press f_avp[1] f_avp[2] f_avp[3] f_avp[4] f_avp[5] f_avp[6]
0    302.88291   -454.04156   -26141.115            0            0            0            0            0            0
Averages over the last 6 of 11 rows, steps 500 to 1000:
Temp PotEng Press f_avp[1] f_avp[2] f_avp[3] f_avp[4] f_avp[5] f_avp[6]
290.216 -453.69 -11963.6 -18409.9 -20444.4 4463.72 13094 -2174.81 -2515.38
Loop time of 435.293 on 1 procs for 1000 steps with 62 atoms

include potential.mod
# NOTE: This script can be modified for different pair styles
# See in.elastic for more info.

# we must undefine any fix ave/* fix before using reset_timestep
if "$(is_defined(fix,avp))" then "unfix avp"
unfix avp
reset_timestep 0

newton off

# Choose potential
# pair_style	sw
# pair_coeff * * Si.sw Si
pair_style	nequip
pair_coeff	* * tob9_l3-deployed.pth Ca H O Si

atom_modify sort 0 0.0
#kspace_style	ewald 1.0e-6# Setup neighbor style

neighbor 2.0 bin
neigh_modify once no every 1 delay 0 check yes

# Setup output

fix avp all ave/time  10 10 100 c_thermo_press mode vector

#min_style cg
#minimize 1.0e-15 1.0e-15 100000 100000 #设置能量最小化

thermo		100
thermo_style custom step temp pe press f_avp[1] f_avp[2] f_avp[3] f_avp[4] f_avp[5] f_avp[6]
thermo_modify norm no

# Setup MD

timestep 0.0001
fix 4 all nve
fix 5 all langevin 300 300 0.007 123457

run 300
Step Temp PotEng Press f_avp[1] f_avp[2] f_avp[3] f_avp[4] f_avp[5] f_avp[6]
0    273.93948   -453.48236   -21509.341            0            0            0            0            0            0
Loop time of 137.596 on 1 procs for 300 steps with 62 atoms

# Obtain new stress tensor

variable pxx1 equal f_avp[1]
variable pyy1 equal f_avp[2]
variable pzz1 equal f_avp[3]
variable pxy1 equal f_avp[4]
variable pxz1 equal f_avp[5]
variable pyz1 equal f_avp[6]

# Compute elastic constant from pressure tensor

variable C1pos equal 153.956483835734
variable C2pos equal 71.6346043945365
variable C3pos equal 77.0341893132347
variable C4pos equal 17.8331576967253
variable C5pos equal 4.67971206888276
variable C6pos equal 2.98448080214185

# Combine positive and negative

variable C11 equal 0.5*(185.237308758518+153.956483835734)
variable C21 equal 0.5*(33.7206274241414+71.6346043945365)
variable C31 equal 0.5*(0.235542258691512+77.0341893132347)
variable C41 equal 0.5*(-16.5587850204896+17.8331576967253)
variable C51 equal 0.5*(-10.7923242482301+4.67971206888276)
variable C61 equal 0.5*(5.67132910015815+2.98448080214185)

# Delete dir to make sure it is not reused

variable dir delete

# uyy Perturbation

variable dir equal 2
include displace.mod
# NOTE: This script should not need to be
# modified. See in.elastic for more info.
#
# Find which reference length to use

variable len0 equal 7.47179647029971

# Reset box and simulation parameters

clear
box tilt large
read_restart restart.equil
Reading restart file ...
  restart file = 29 Sep 2021, LAMMPS = 29 Sep 2021
  restoring atom style atomic from restart
  triclinic box = (-0.015245552 -0.010220454 -0.012858557) to (11.130214 7.4615760 9.3875572) with tilt (-0.17466860 -0.15395947 -1.9301423)
  pair style nequip stores no restart info
  62 atoms
  read_restart CPU = 0.000 seconds
include potential.mod
# NOTE: This script can be modified for different pair styles
# See in.elastic for more info.

# we must undefine any fix ave/* fix before using reset_timestep
if "$(is_defined(fix,avp))" then "unfix avp"
reset_timestep 0

newton off

# Choose potential
# pair_style	sw
# pair_coeff * * Si.sw Si
pair_style	nequip
pair_coeff	* * tob9_l3-deployed.pth Ca H O Si

atom_modify sort 0 0.0
#kspace_style	ewald 1.0e-6# Setup neighbor style

neighbor 2.0 bin
neigh_modify once no every 1 delay 0 check yes

# Setup output

fix avp all ave/time  10 10 100 c_thermo_press mode vector

#min_style cg
#minimize 1.0e-15 1.0e-15 100000 100000 #设置能量最小化

thermo		100
thermo_style custom step temp pe press f_avp[1] f_avp[2] f_avp[3] f_avp[4] f_avp[5] f_avp[6]
thermo_modify norm no

# Setup MD

timestep 0.0001
fix 4 all nve
fix 5 all langevin 300 300 0.007 123457

# Negative deformation

variable delta equal -0.02*7.47179647029971
variable deltaxy equal -0.02*xy
variable deltaxz equal -0.02*xz
variable deltayz equal -0.02*yz
change_box all y delta 0 -0.149435929405994 yz delta 0.0386028464388057 remap units box
Changing box ...
  triclinic box = (-0.015245552 -0.010220454 -0.012858557) to (11.130214 7.3121401 9.3875572) with tilt (-0.17466860 -0.15395947 -1.9301423)
  triclinic box = (-0.015245552 -0.010220454 -0.012858557) to (11.130214 7.3121401 9.3875572) with tilt (-0.17466860 -0.15395947 -1.8915395)

# Run MD

run 1000
  update every 1 steps, delay 0 steps, check yes
Step Temp PotEng Press f_avp[1] f_avp[2] f_avp[3] f_avp[4] f_avp[5] f_avp[6]
0    302.88291    -454.1651    33467.955            0            0            0            0            0            0
Averages over the last 6 of 11 rows, steps 500 to 1000:
Temp PotEng Press f_avp[1] f_avp[2] f_avp[3] f_avp[4] f_avp[5] f_avp[6]
291.292 -453.808 25280.3 26305.7 27813.6 23696.6 14037 -5015.68 -1752.06
Loop time of 454.498 on 1 procs for 1000 steps with 62 atoms

include potential.mod
# NOTE: This script can be modified for different pair styles
# See in.elastic for more info.

# we must undefine any fix ave/* fix before using reset_timestep
if "$(is_defined(fix,avp))" then "unfix avp"
unfix avp
reset_timestep 0

newton off

# Choose potential
# pair_style	sw
# pair_coeff * * Si.sw Si
pair_style	nequip
pair_coeff	* * tob9_l3-deployed.pth Ca H O Si

atom_modify sort 0 0.0
#kspace_style	ewald 1.0e-6# Setup neighbor style

neighbor 2.0 bin
neigh_modify once no every 1 delay 0 check yes

# Setup output

fix avp all ave/time  10 10 100 c_thermo_press mode vector

#min_style cg
#minimize 1.0e-15 1.0e-15 100000 100000 #设置能量最小化

thermo		100
thermo_style custom step temp pe press f_avp[1] f_avp[2] f_avp[3] f_avp[4] f_avp[5] f_avp[6]
thermo_modify norm no

# Setup MD

timestep 0.0001
fix 4 all nve
fix 5 all langevin 300 300 0.007 123457

run 300
Step Temp PotEng Press f_avp[1] f_avp[2] f_avp[3] f_avp[4] f_avp[5] f_avp[6]
0    275.39158   -453.64737    15155.179            0            0            0            0            0            0
Loop time of 137.377 on 1 procs for 300 steps with 62 atoms

# Obtain new stress tensor

variable pxx1 equal f_avp[1]
variable pyy1 equal f_avp[2]
variable pzz1 equal f_avp[3]
variable pxy1 equal f_avp[4]
variable pxz1 equal f_avp[5]
variable pyz1 equal f_avp[6]

# Compute elastic constant from pressure tensor

variable C1neg equal 65.0905949163621
variable C2neg equal 153.336884534673
variable C3neg equal 12.079153187618
variable C4neg equal -12.9709905034873
variable C5neg equal -19.1125725201116
variable C6neg equal 0.967409342395405

# Reset box and simulation parameters

clear
box tilt large
read_restart restart.equil
Reading restart file ...
  restart file = 29 Sep 2021, LAMMPS = 29 Sep 2021
  restoring atom style atomic from restart
  triclinic box = (-0.015245552 -0.010220454 -0.012858557) to (11.130214 7.4615760 9.3875572) with tilt (-0.17466860 -0.15395947 -1.9301423)
  pair style nequip stores no restart info
  62 atoms
  read_restart CPU = 0.000 seconds
include potential.mod
# NOTE: This script can be modified for different pair styles
# See in.elastic for more info.

# we must undefine any fix ave/* fix before using reset_timestep
if "$(is_defined(fix,avp))" then "unfix avp"
reset_timestep 0

newton off

# Choose potential
# pair_style	sw
# pair_coeff * * Si.sw Si
pair_style	nequip
pair_coeff	* * tob9_l3-deployed.pth Ca H O Si

atom_modify sort 0 0.0
#kspace_style	ewald 1.0e-6# Setup neighbor style

neighbor 2.0 bin
neigh_modify once no every 1 delay 0 check yes

# Setup output

fix avp all ave/time  10 10 100 c_thermo_press mode vector

#min_style cg
#minimize 1.0e-15 1.0e-15 100000 100000 #设置能量最小化

thermo		100
thermo_style custom step temp pe press f_avp[1] f_avp[2] f_avp[3] f_avp[4] f_avp[5] f_avp[6]
thermo_modify norm no

# Setup MD

timestep 0.0001
fix 4 all nve
fix 5 all langevin 300 300 0.007 123457

# Positive deformation

variable delta equal 0.02*7.47179647029971
variable deltaxy equal 0.02*xy
variable deltaxz equal 0.02*xz
variable deltayz equal 0.02*yz
change_box all y delta 0 0.149435929405994 yz delta -0.0386028464388057 remap units box
Changing box ...
  triclinic box = (-0.015245552 -0.010220454 -0.012858557) to (11.130214 7.6110119 9.3875572) with tilt (-0.17466860 -0.15395947 -1.9301423)
  triclinic box = (-0.015245552 -0.010220454 -0.012858557) to (11.130214 7.6110119 9.3875572) with tilt (-0.17466860 -0.15395947 -1.9687452)

# Run MD

run 1000
  update every 1 steps, delay 0 steps, check yes
Step Temp PotEng Press f_avp[1] f_avp[2] f_avp[3] f_avp[4] f_avp[5] f_avp[6]
0    302.88291   -453.84772   -18779.469            0            0            0            0            0            0
Averages over the last 6 of 11 rows, steps 500 to 1000:
Temp PotEng Press f_avp[1] f_avp[2] f_avp[3] f_avp[4] f_avp[5] f_avp[6]
289.885 -453.412 -13646.7 3869.65 -45829.2 2501.48 14022 -956.826 -2819.98
Loop time of 438.42 on 1 procs for 1000 steps with 62 atoms

include potential.mod
# NOTE: This script can be modified for different pair styles
# See in.elastic for more info.

# we must undefine any fix ave/* fix before using reset_timestep
if "$(is_defined(fix,avp))" then "unfix avp"
unfix avp
reset_timestep 0

newton off

# Choose potential
# pair_style	sw
# pair_coeff * * Si.sw Si
pair_style	nequip
pair_coeff	* * tob9_l3-deployed.pth Ca H O Si

atom_modify sort 0 0.0
#kspace_style	ewald 1.0e-6# Setup neighbor style

neighbor 2.0 bin
neigh_modify once no every 1 delay 0 check yes

# Setup output

fix avp all ave/time  10 10 100 c_thermo_press mode vector

#min_style cg
#minimize 1.0e-15 1.0e-15 100000 100000 #设置能量最小化

thermo		100
thermo_style custom step temp pe press f_avp[1] f_avp[2] f_avp[3] f_avp[4] f_avp[5] f_avp[6]
thermo_modify norm no

# Setup MD

timestep 0.0001
fix 4 all nve
fix 5 all langevin 300 300 0.007 123457

run 300
Step Temp PotEng Press f_avp[1] f_avp[2] f_avp[3] f_avp[4] f_avp[5] f_avp[6]
0    273.26759   -453.20309   -22777.234            0            0            0            0            0            0
Loop time of 137.564 on 1 procs for 300 steps with 62 atoms

# Obtain new stress tensor

variable pxx1 equal f_avp[1]
variable pyy1 equal f_avp[2]
variable pzz1 equal f_avp[3]
variable pxy1 equal f_avp[4]
variable pxz1 equal f_avp[5]
variable pyz1 equal f_avp[6]

# Compute elastic constant from pressure tensor

variable C1pos equal 46.8824198381803
variable C2pos equal 184.87540960765
variable C3pos equal 87.484388016147
variable C4pos equal 20.7143970095633
variable C5pos equal -4.65462978648705
variable C6pos equal -1.85899640264181

# Combine positive and negative

variable C12 equal 0.5*(65.0905949163621+46.8824198381803)
variable C22 equal 0.5*(153.336884534673+184.87540960765)
variable C32 equal 0.5*(12.079153187618+87.484388016147)
variable C42 equal 0.5*(-12.9709905034873+20.7143970095633)
variable C52 equal 0.5*(-19.1125725201116+-4.65462978648705)
variable C62 equal 0.5*(0.967409342395405+-1.85899640264181)

# Delete dir to make sure it is not reused

variable dir delete

# uzz Perturbation

variable dir equal 3
include displace.mod
# NOTE: This script should not need to be
# modified. See in.elastic for more info.
#
# Find which reference length to use

variable len0 equal 9.4004157087544

# Reset box and simulation parameters

clear
box tilt large
read_restart restart.equil
Reading restart file ...
  restart file = 29 Sep 2021, LAMMPS = 29 Sep 2021
  restoring atom style atomic from restart
  triclinic box = (-0.015245552 -0.010220454 -0.012858557) to (11.130214 7.4615760 9.3875572) with tilt (-0.17466860 -0.15395947 -1.9301423)
  pair style nequip stores no restart info
  62 atoms
  read_restart CPU = 0.000 seconds
include potential.mod
# NOTE: This script can be modified for different pair styles
# See in.elastic for more info.

# we must undefine any fix ave/* fix before using reset_timestep
if "$(is_defined(fix,avp))" then "unfix avp"
reset_timestep 0

newton off

# Choose potential
# pair_style	sw
# pair_coeff * * Si.sw Si
pair_style	nequip
pair_coeff	* * tob9_l3-deployed.pth Ca H O Si

atom_modify sort 0 0.0
#kspace_style	ewald 1.0e-6# Setup neighbor style

neighbor 2.0 bin
neigh_modify once no every 1 delay 0 check yes

# Setup output

fix avp all ave/time  10 10 100 c_thermo_press mode vector

#min_style cg
#minimize 1.0e-15 1.0e-15 100000 100000 #设置能量最小化

thermo		100
thermo_style custom step temp pe press f_avp[1] f_avp[2] f_avp[3] f_avp[4] f_avp[5] f_avp[6]
thermo_modify norm no

# Setup MD

timestep 0.0001
fix 4 all nve
fix 5 all langevin 300 300 0.007 123457

# Negative deformation

variable delta equal -0.02*9.4004157087544
variable deltaxy equal -0.02*xy
variable deltaxz equal -0.02*xz
variable deltayz equal -0.02*yz
change_box all z delta 0 -0.188008314175088 remap units box
Changing box ...
  triclinic box = (-0.015245552 -0.010220454 -0.012858557) to (11.130214 7.4615760 9.1995488) with tilt (-0.17466860 -0.15395947 -1.9301423)

# Run MD

run 1000
  update every 1 steps, delay 0 steps, check yes
Step Temp PotEng Press f_avp[1] f_avp[2] f_avp[3] f_avp[4] f_avp[5] f_avp[6]
0    302.88291   -453.84888    37042.748            0            0            0            0            0            0
Averages over the last 6 of 11 rows, steps 500 to 1000:
Temp PotEng Press f_avp[1] f_avp[2] f_avp[3] f_avp[4] f_avp[5] f_avp[6]
291.093 -453.634 20632.9 23258.5 367.395 40739.9 14640.9 -2154.16 -2126.59
Loop time of 450.168 on 1 procs for 1000 steps with 62 atoms

include potential.mod
# NOTE: This script can be modified for different pair styles
# See in.elastic for more info.

# we must undefine any fix ave/* fix before using reset_timestep
if "$(is_defined(fix,avp))" then "unfix avp"
unfix avp
reset_timestep 0

newton off

# Choose potential
# pair_style	sw
# pair_coeff * * Si.sw Si
pair_style	nequip
pair_coeff	* * tob9_l3-deployed.pth Ca H O Si

atom_modify sort 0 0.0
#kspace_style	ewald 1.0e-6# Setup neighbor style

neighbor 2.0 bin
neigh_modify once no every 1 delay 0 check yes

# Setup output

fix avp all ave/time  10 10 100 c_thermo_press mode vector

#min_style cg
#minimize 1.0e-15 1.0e-15 100000 100000 #设置能量最小化

thermo		100
thermo_style custom step temp pe press f_avp[1] f_avp[2] f_avp[3] f_avp[4] f_avp[5] f_avp[6]
thermo_modify norm no

# Setup MD

timestep 0.0001
fix 4 all nve
fix 5 all langevin 300 300 0.007 123457

run 300
Step Temp PotEng Press f_avp[1] f_avp[2] f_avp[3] f_avp[4] f_avp[5] f_avp[6]
0    276.83255   -453.47705    9928.4452            0            0            0            0            0            0
Loop time of 141.872 on 1 procs for 300 steps with 62 atoms

# Obtain new stress tensor

variable pxx1 equal f_avp[1]
variable pyy1 equal f_avp[2]
variable pzz1 equal f_avp[3]
variable pxy1 equal f_avp[4]
variable pxz1 equal f_avp[5]
variable pyz1 equal f_avp[6]

# Compute elastic constant from pressure tensor

variable C1neg equal 47.570370160387
variable C2neg equal 24.2900405710626
variable C3neg equal 84.7528171148755
variable C4neg equal -15.8246609088161
variable C5neg equal -4.85753054752306
variable C6neg equal 5.17342916025765

# Reset box and simulation parameters

clear
box tilt large
read_restart restart.equil
Reading restart file ...
  restart file = 29 Sep 2021, LAMMPS = 29 Sep 2021
  restoring atom style atomic from restart
  triclinic box = (-0.015245552 -0.010220454 -0.012858557) to (11.130214 7.4615760 9.3875572) with tilt (-0.17466860 -0.15395947 -1.9301423)
  pair style nequip stores no restart info
  62 atoms
  read_restart CPU = 0.000 seconds
include potential.mod
# NOTE: This script can be modified for different pair styles
# See in.elastic for more info.

# we must undefine any fix ave/* fix before using reset_timestep
if "$(is_defined(fix,avp))" then "unfix avp"
reset_timestep 0

newton off

# Choose potential
# pair_style	sw
# pair_coeff * * Si.sw Si
pair_style	nequip
pair_coeff	* * tob9_l3-deployed.pth Ca H O Si

atom_modify sort 0 0.0
#kspace_style	ewald 1.0e-6# Setup neighbor style

neighbor 2.0 bin
neigh_modify once no every 1 delay 0 check yes

# Setup output

fix avp all ave/time  10 10 100 c_thermo_press mode vector

#min_style cg
#minimize 1.0e-15 1.0e-15 100000 100000 #设置能量最小化

thermo		100
thermo_style custom step temp pe press f_avp[1] f_avp[2] f_avp[3] f_avp[4] f_avp[5] f_avp[6]
thermo_modify norm no

# Setup MD

timestep 0.0001
fix 4 all nve
fix 5 all langevin 300 300 0.007 123457

# Positive deformation

variable delta equal 0.02*9.4004157087544
variable deltaxy equal 0.02*xy
variable deltaxz equal 0.02*xz
variable deltayz equal 0.02*yz
change_box all z delta 0 0.188008314175088 remap units box
Changing box ...
  triclinic box = (-0.015245552 -0.010220454 -0.012858557) to (11.130214 7.4615760 9.5755655) with tilt (-0.17466860 -0.15395947 -1.9301423)

# Run MD

run 1000
  update every 1 steps, delay 0 steps, check yes
Step Temp PotEng Press f_avp[1] f_avp[2] f_avp[3] f_avp[4] f_avp[5] f_avp[6]
0    302.88291   -454.10092   -21725.584            0            0            0            0            0            0
Averages over the last 6 of 11 rows, steps 500 to 1000:
Temp PotEng Press f_avp[1] f_avp[2] f_avp[3] f_avp[4] f_avp[5] f_avp[6]
290.065 -453.706 -8984.39 5759.48 -20364.1 -11360.5 13559.9 -3450.2 -2622.06
Loop time of 435.322 on 1 procs for 1000 steps with 62 atoms

include potential.mod
# NOTE: This script can be modified for different pair styles
# See in.elastic for more info.

# we must undefine any fix ave/* fix before using reset_timestep
if "$(is_defined(fix,avp))" then "unfix avp"
unfix avp
reset_timestep 0

newton off

# Choose potential
# pair_style	sw
# pair_coeff * * Si.sw Si
pair_style	nequip
pair_coeff	* * tob9_l3-deployed.pth Ca H O Si

atom_modify sort 0 0.0
#kspace_style	ewald 1.0e-6# Setup neighbor style

neighbor 2.0 bin
neigh_modify once no every 1 delay 0 check yes

# Setup output

fix avp all ave/time  10 10 100 c_thermo_press mode vector

#min_style cg
#minimize 1.0e-15 1.0e-15 100000 100000 #设置能量最小化

thermo		100
thermo_style custom step temp pe press f_avp[1] f_avp[2] f_avp[3] f_avp[4] f_avp[5] f_avp[6]
thermo_modify norm no

# Setup MD

timestep 0.0001
fix 4 all nve
fix 5 all langevin 300 300 0.007 123457

run 300
Step Temp PotEng Press f_avp[1] f_avp[2] f_avp[3] f_avp[4] f_avp[5] f_avp[6]
0    272.16012   -453.50162   -17620.043            0            0            0            0            0            0
Loop time of 137.904 on 1 procs for 300 steps with 62 atoms

# Obtain new stress tensor

variable pxx1 equal f_avp[1]
variable pyy1 equal f_avp[2]
variable pzz1 equal f_avp[3]
variable pxy1 equal f_avp[4]
variable pxz1 equal f_avp[5]
variable pyz1 equal f_avp[6]

# Compute elastic constant from pressure tensor

variable C1pos equal 34.9775905720936
variable C2pos equal 65.9590997704635
variable C3pos equal 142.93593887112
variable C4pos equal 18.4494001315058
variable C5pos equal 8.55472218790762
variable C6pos equal 1.4500918056631

# Combine positive and negative

variable C13 equal 0.5*(47.570370160387+34.9775905720936)
variable C23 equal 0.5*(24.2900405710626+65.9590997704635)
variable C33 equal 0.5*(84.7528171148755+142.93593887112)
variable C43 equal 0.5*(-15.8246609088161+18.4494001315058)
variable C53 equal 0.5*(-4.85753054752306+8.55472218790762)
variable C63 equal 0.5*(5.17342916025765+1.4500918056631)

# Delete dir to make sure it is not reused

variable dir delete

# uyz Perturbation

variable dir equal 4
include displace.mod
# NOTE: This script should not need to be
# modified. See in.elastic for more info.
#
# Find which reference length to use

variable len0 equal 9.4004157087544

# Reset box and simulation parameters

clear
box tilt large
read_restart restart.equil
Reading restart file ...
  restart file = 29 Sep 2021, LAMMPS = 29 Sep 2021
  restoring atom style atomic from restart
  triclinic box = (-0.015245552 -0.010220454 -0.012858557) to (11.130214 7.4615760 9.3875572) with tilt (-0.17466860 -0.15395947 -1.9301423)
  pair style nequip stores no restart info
  62 atoms
  read_restart CPU = 0.000 seconds
include potential.mod
# NOTE: This script can be modified for different pair styles
# See in.elastic for more info.

# we must undefine any fix ave/* fix before using reset_timestep
if "$(is_defined(fix,avp))" then "unfix avp"
reset_timestep 0

newton off

# Choose potential
# pair_style	sw
# pair_coeff * * Si.sw Si
pair_style	nequip
pair_coeff	* * tob9_l3-deployed.pth Ca H O Si

atom_modify sort 0 0.0
#kspace_style	ewald 1.0e-6# Setup neighbor style

neighbor 2.0 bin
neigh_modify once no every 1 delay 0 check yes

# Setup output

fix avp all ave/time  10 10 100 c_thermo_press mode vector

#min_style cg
#minimize 1.0e-15 1.0e-15 100000 100000 #设置能量最小化

thermo		100
thermo_style custom step temp pe press f_avp[1] f_avp[2] f_avp[3] f_avp[4] f_avp[5] f_avp[6]
thermo_modify norm no

# Setup MD

timestep 0.0001
fix 4 all nve
fix 5 all langevin 300 300 0.007 123457

# Negative deformation

variable delta equal -0.02*9.4004157087544
variable deltaxy equal -0.02*xy
variable deltaxz equal -0.02*xz
variable deltayz equal -0.02*yz
change_box all yz delta -0.188008314175088 remap units box
Changing box ...
  triclinic box = (-0.015245552 -0.010220454 -0.012858557) to (11.130214 7.4615760 9.3875572) with tilt (-0.17466860 -0.15395947 -2.1181506)

# Run MD

run 1000
  update every 1 steps, delay 0 steps, check yes
Step Temp PotEng Press f_avp[1] f_avp[2] f_avp[3] f_avp[4] f_avp[5] f_avp[6]
0    302.88291   -454.18469     6258.523            0            0            0            0            0            0
Averages over the last 6 of 11 rows, steps 500 to 1000:
Temp PotEng Press f_avp[1] f_avp[2] f_avp[3] f_avp[4] f_avp[5] f_avp[6]
291.081 -453.76 5115.64 14476.7 -10316.1 12936.1 13262.2 -2816.47 7577.51
Loop time of 448.746 on 1 procs for 1000 steps with 62 atoms

include potential.mod
# NOTE: This script can be modified for different pair styles
# See in.elastic for more info.

# we must undefine any fix ave/* fix before using reset_timestep
if "$(is_defined(fix,avp))" then "unfix avp"
unfix avp
reset_timestep 0

newton off

# Choose potential
# pair_style	sw
# pair_coeff * * Si.sw Si
pair_style	nequip
pair_coeff	* * tob9_l3-deployed.pth Ca H O Si

atom_modify sort 0 0.0
#kspace_style	ewald 1.0e-6# Setup neighbor style

neighbor 2.0 bin
neigh_modify once no every 1 delay 0 check yes

# Setup output

fix avp all ave/time  10 10 100 c_thermo_press mode vector

#min_style cg
#minimize 1.0e-15 1.0e-15 100000 100000 #设置能量最小化

thermo		100
thermo_style custom step temp pe press f_avp[1] f_avp[2] f_avp[3] f_avp[4] f_avp[5] f_avp[6]
thermo_modify norm no

# Setup MD

timestep 0.0001
fix 4 all nve
fix 5 all langevin 300 300 0.007 123457

run 300
Step Temp PotEng Press f_avp[1] f_avp[2] f_avp[3] f_avp[4] f_avp[5] f_avp[6]
0    274.89446   -453.58154   -4447.0516            0            0            0            0            0            0
Loop time of 140.327 on 1 procs for 300 steps with 62 atoms

# Obtain new stress tensor

variable pxx1 equal f_avp[1]
variable pyy1 equal f_avp[2]
variable pzz1 equal f_avp[3]
variable pxy1 equal f_avp[4]
variable pxz1 equal f_avp[5]
variable pyz1 equal f_avp[6]

# Compute elastic constant from pressure tensor

variable C1neg equal 6.44733208668649
variable C2neg equal -20.735221133588
variable C3neg equal -35.9385913881715
variable C4neg equal 25.1491460829657
variable C5neg equal -6.69634848902241
variable C6neg equal -3.28179037077005

# Reset box and simulation parameters

clear
box tilt large
read_restart restart.equil
Reading restart file ...
  restart file = 29 Sep 2021, LAMMPS = 29 Sep 2021
  restoring atom style atomic from restart
  triclinic box = (-0.015245552 -0.010220454 -0.012858557) to (11.130214 7.4615760 9.3875572) with tilt (-0.17466860 -0.15395947 -1.9301423)
  pair style nequip stores no restart info
  62 atoms
  read_restart CPU = 0.000 seconds
include potential.mod
# NOTE: This script can be modified for different pair styles
# See in.elastic for more info.

# we must undefine any fix ave/* fix before using reset_timestep
if "$(is_defined(fix,avp))" then "unfix avp"
reset_timestep 0

newton off

# Choose potential
# pair_style	sw
# pair_coeff * * Si.sw Si
pair_style	nequip
pair_coeff	* * tob9_l3-deployed.pth Ca H O Si

atom_modify sort 0 0.0
#kspace_style	ewald 1.0e-6# Setup neighbor style

neighbor 2.0 bin
neigh_modify once no every 1 delay 0 check yes

# Setup output

fix avp all ave/time  10 10 100 c_thermo_press mode vector

#min_style cg
#minimize 1.0e-15 1.0e-15 100000 100000 #设置能量最小化

thermo		100
thermo_style custom step temp pe press f_avp[1] f_avp[2] f_avp[3] f_avp[4] f_avp[5] f_avp[6]
thermo_modify norm no

# Setup MD

timestep 0.0001
fix 4 all nve
fix 5 all langevin 300 300 0.007 123457

# Positive deformation

variable delta equal 0.02*9.4004157087544
variable deltaxy equal 0.02*xy
variable deltaxz equal 0.02*xz
variable deltayz equal 0.02*yz
change_box all yz delta 0.188008314175088 remap units box
Changing box ...
  triclinic box = (-0.015245552 -0.010220454 -0.012858557) to (11.130214 7.4615760 9.3875572) with tilt (-0.17466860 -0.15395947 -1.7421340)

# Run MD

run 1000
  update every 1 steps, delay 0 steps, check yes
Step Temp PotEng Press f_avp[1] f_avp[2] f_avp[3] f_avp[4] f_avp[5] f_avp[6]
0    302.88291   -454.15201     5388.013            0            0            0            0            0            0
Averages over the last 6 of 11 rows, steps 500 to 1000:
Temp PotEng Press f_avp[1] f_avp[2] f_avp[3] f_avp[4] f_avp[5] f_avp[6]
290.022 -453.717 4441.89 13951.1 -11453.1 12553.2 14824.5 -2895.49 -12164.2
Loop time of 447.986 on 1 procs for 1000 steps with 62 atoms

include potential.mod
# NOTE: This script can be modified for different pair styles
# See in.elastic for more info.

# we must undefine any fix ave/* fix before using reset_timestep
if "$(is_defined(fix,avp))" then "unfix avp"
unfix avp
reset_timestep 0

newton off

# Choose potential
# pair_style	sw
# pair_coeff * * Si.sw Si
pair_style	nequip
pair_coeff	* * tob9_l3-deployed.pth Ca H O Si

atom_modify sort 0 0.0
#kspace_style	ewald 1.0e-6# Setup neighbor style

neighbor 2.0 bin
neigh_modify once no every 1 delay 0 check yes

# Setup output

fix avp all ave/time  10 10 100 c_thermo_press mode vector

#min_style cg
#minimize 1.0e-15 1.0e-15 100000 100000 #设置能量最小化

thermo		100
thermo_style custom step temp pe press f_avp[1] f_avp[2] f_avp[3] f_avp[4] f_avp[5] f_avp[6]
thermo_modify norm no

# Setup MD

timestep 0.0001
fix 4 all nve
fix 5 all langevin 300 300 0.007 123457

run 300
Step Temp PotEng Press f_avp[1] f_avp[2] f_avp[3] f_avp[4] f_avp[5] f_avp[6]
0    273.62696   -453.52643   -5286.9934            0            0            0            0            0            0
Loop time of 139.843 on 1 procs for 300 steps with 62 atoms

# Obtain new stress tensor

variable pxx1 equal f_avp[1]
variable pyy1 equal f_avp[2]
variable pzz1 equal f_avp[3]
variable pxy1 equal f_avp[4]
variable pxz1 equal f_avp[5]
variable pyz1 equal f_avp[6]

# Compute elastic constant from pressure tensor

variable C1pos equal -3.27995345487499
variable C2pos equal 29.3274549846125
variable C3pos equal 42.7565132513251
variable C4pos equal 58.9312032689332
variable C5pos equal 6.84563400028572
variable C6pos equal -6.15505801989565

# Combine positive and negative

variable C14 equal 0.5*(6.44733208668649+-3.27995345487499)
variable C24 equal 0.5*(-20.735221133588+29.3274549846125)
variable C34 equal 0.5*(-35.9385913881715+42.7565132513251)
variable C44 equal 0.5*(25.1491460829657+58.9312032689332)
variable C54 equal 0.5*(-6.69634848902241+6.84563400028572)
variable C64 equal 0.5*(-3.28179037077005+-6.15505801989565)

# Delete dir to make sure it is not reused

variable dir delete

# uxz Perturbation

variable dir equal 5
include displace.mod
# NOTE: This script should not need to be
# modified. See in.elastic for more info.
#
# Find which reference length to use

variable len0 equal 9.4004157087544

# Reset box and simulation parameters

clear
box tilt large
read_restart restart.equil
Reading restart file ...
  restart file = 29 Sep 2021, LAMMPS = 29 Sep 2021
  restoring atom style atomic from restart
  triclinic box = (-0.015245552 -0.010220454 -0.012858557) to (11.130214 7.4615760 9.3875572) with tilt (-0.17466860 -0.15395947 -1.9301423)
  pair style nequip stores no restart info
  62 atoms
  read_restart CPU = 0.000 seconds
include potential.mod
# NOTE: This script can be modified for different pair styles
# See in.elastic for more info.

# we must undefine any fix ave/* fix before using reset_timestep
if "$(is_defined(fix,avp))" then "unfix avp"
reset_timestep 0

newton off

# Choose potential
# pair_style	sw
# pair_coeff * * Si.sw Si
pair_style	nequip
pair_coeff	* * tob9_l3-deployed.pth Ca H O Si

atom_modify sort 0 0.0
#kspace_style	ewald 1.0e-6# Setup neighbor style

neighbor 2.0 bin
neigh_modify once no every 1 delay 0 check yes

# Setup output

fix avp all ave/time  10 10 100 c_thermo_press mode vector

#min_style cg
#minimize 1.0e-15 1.0e-15 100000 100000 #设置能量最小化

thermo		100
thermo_style custom step temp pe press f_avp[1] f_avp[2] f_avp[3] f_avp[4] f_avp[5] f_avp[6]
thermo_modify norm no

# Setup MD

timestep 0.0001
fix 4 all nve
fix 5 all langevin 300 300 0.007 123457

# Negative deformation

variable delta equal -0.02*9.4004157087544
variable deltaxy equal -0.02*xy
variable deltaxz equal -0.02*xz
variable deltayz equal -0.02*yz
change_box all xz delta -0.188008314175088 remap units box
Changing box ...
  triclinic box = (-0.015245552 -0.010220454 -0.012858557) to (11.130214 7.4615760 9.3875572) with tilt (-0.17466860 -0.34196778 -1.9301423)

# Run MD

run 1000
  update every 1 steps, delay 0 steps, check yes
Step Temp PotEng Press f_avp[1] f_avp[2] f_avp[3] f_avp[4] f_avp[5] f_avp[6]
0    302.88291   -454.13013    7564.6523            0            0            0            0            0            0
Averages over the last 6 of 11 rows, steps 500 to 1000:
Temp PotEng Press f_avp[1] f_avp[2] f_avp[3] f_avp[4] f_avp[5] f_avp[6]
290.446 -453.748 3883.61 13137.3 -12694.3 13128.4 14156.2 3406.15 -2271.34
Loop time of 448.613 on 1 procs for 1000 steps with 62 atoms

include potential.mod
# NOTE: This script can be modified for different pair styles
# See in.elastic for more info.

# we must undefine any fix ave/* fix before using reset_timestep
if "$(is_defined(fix,avp))" then "unfix avp"
unfix avp
reset_timestep 0

newton off

# Choose potential
# pair_style	sw
# pair_coeff * * Si.sw Si
pair_style	nequip
pair_coeff	* * tob9_l3-deployed.pth Ca H O Si

atom_modify sort 0 0.0
#kspace_style	ewald 1.0e-6# Setup neighbor style

neighbor 2.0 bin
neigh_modify once no every 1 delay 0 check yes

# Setup output

fix avp all ave/time  10 10 100 c_thermo_press mode vector

#min_style cg
#minimize 1.0e-15 1.0e-15 100000 100000 #设置能量最小化

thermo		100
thermo_style custom step temp pe press f_avp[1] f_avp[2] f_avp[3] f_avp[4] f_avp[5] f_avp[6]
thermo_modify norm no

# Setup MD

timestep 0.0001
fix 4 all nve
fix 5 all langevin 300 300 0.007 123457

run 300
Step Temp PotEng Press f_avp[1] f_avp[2] f_avp[3] f_avp[4] f_avp[5] f_avp[6]
0    275.72286   -453.56281   -5905.9976            0            0            0            0            0            0
Loop time of 135.823 on 1 procs for 300 steps with 62 atoms

# Obtain new stress tensor

variable pxx1 equal f_avp[1]
variable pyy1 equal f_avp[2]
variable pzz1 equal f_avp[3]
variable pxy1 equal f_avp[4]
variable pxz1 equal f_avp[5]
variable pyz1 equal f_avp[6]

# Compute elastic constant from pressure tensor

variable C1neg equal 0.335668559279493
variable C2neg equal -34.9824995973955
variable C3neg equal -40.2422213717815
variable C4neg equal -17.2683125459043
variable C5neg equal 22.5730743784527
variable C6neg equal 3.86870834451865

# Reset box and simulation parameters

clear
box tilt large
read_restart restart.equil
Reading restart file ...
  restart file = 29 Sep 2021, LAMMPS = 29 Sep 2021
  restoring atom style atomic from restart
  triclinic box = (-0.015245552 -0.010220454 -0.012858557) to (11.130214 7.4615760 9.3875572) with tilt (-0.17466860 -0.15395947 -1.9301423)
  pair style nequip stores no restart info
  62 atoms
  read_restart CPU = 0.000 seconds
include potential.mod
# NOTE: This script can be modified for different pair styles
# See in.elastic for more info.

# we must undefine any fix ave/* fix before using reset_timestep
if "$(is_defined(fix,avp))" then "unfix avp"
reset_timestep 0

newton off

# Choose potential
# pair_style	sw
# pair_coeff * * Si.sw Si
pair_style	nequip
pair_coeff	* * tob9_l3-deployed.pth Ca H O Si

atom_modify sort 0 0.0
#kspace_style	ewald 1.0e-6# Setup neighbor style

neighbor 2.0 bin
neigh_modify once no every 1 delay 0 check yes

# Setup output

fix avp all ave/time  10 10 100 c_thermo_press mode vector

#min_style cg
#minimize 1.0e-15 1.0e-15 100000 100000 #设置能量最小化

thermo		100
thermo_style custom step temp pe press f_avp[1] f_avp[2] f_avp[3] f_avp[4] f_avp[5] f_avp[6]
thermo_modify norm no

# Setup MD

timestep 0.0001
fix 4 all nve
fix 5 all langevin 300 300 0.007 123457

# Positive deformation

variable delta equal 0.02*9.4004157087544
variable deltaxy equal 0.02*xy
variable deltaxz equal 0.02*xz
variable deltayz equal 0.02*yz
change_box all xz delta 0.188008314175088 remap units box
Changing box ...
  triclinic box = (-0.015245552 -0.010220454 -0.012858557) to (11.130214 7.4615760 9.3875572) with tilt (-0.17466860 0.034048849 -1.9301423)

# Run MD

run 1000
  update every 1 steps, delay 0 steps, check yes
Step Temp PotEng Press f_avp[1] f_avp[2] f_avp[3] f_avp[4] f_avp[5] f_avp[6]
0    302.88291   -454.17319    4314.7766            0            0            0            0            0            0
Averages over the last 6 of 11 rows, steps 500 to 1000:
Temp PotEng Press f_avp[1] f_avp[2] f_avp[3] f_avp[4] f_avp[5] f_avp[6]
290.707 -453.757 5612.46 14852.2 -8620.99 12151.6 13914.2 -9229.69 -2313.54
Loop time of 443.762 on 1 procs for 1000 steps with 62 atoms

include potential.mod
# NOTE: This script can be modified for different pair styles
# See in.elastic for more info.

# we must undefine any fix ave/* fix before using reset_timestep
if "$(is_defined(fix,avp))" then "unfix avp"
unfix avp
reset_timestep 0

newton off

# Choose potential
# pair_style	sw
# pair_coeff * * Si.sw Si
pair_style	nequip
pair_coeff	* * tob9_l3-deployed.pth Ca H O Si

atom_modify sort 0 0.0
#kspace_style	ewald 1.0e-6# Setup neighbor style

neighbor 2.0 bin
neigh_modify once no every 1 delay 0 check yes

# Setup output

fix avp all ave/time  10 10 100 c_thermo_press mode vector

#min_style cg
#minimize 1.0e-15 1.0e-15 100000 100000 #设置能量最小化

thermo		100
thermo_style custom step temp pe press f_avp[1] f_avp[2] f_avp[3] f_avp[4] f_avp[5] f_avp[6]
thermo_modify norm no

# Setup MD

timestep 0.0001
fix 4 all nve
fix 5 all langevin 300 300 0.007 123457

run 300
Step Temp PotEng Press f_avp[1] f_avp[2] f_avp[3] f_avp[4] f_avp[5] f_avp[6]
0    272.57841   -453.56888   -3900.0258            0            0            0            0            0            0
Loop time of 135.72 on 1 procs for 300 steps with 62 atoms

# Obtain new stress tensor

variable pxx1 equal f_avp[1]
variable pyy1 equal f_avp[2]
variable pzz1 equal f_avp[3]
variable pxy1 equal f_avp[4]
variable pxz1 equal f_avp[5]
variable pyz1 equal f_avp[6]

# Compute elastic constant from pressure tensor

variable C1pos equal -7.862389341907
variable C2pos equal 13.0247214132235
variable C3pos equal 39.8151116573337
variable C4pos equal 16.7583323431255
variable C5pos equal 36.4342352256386
variable C6pos equal 0.9419057553126

# Combine positive and negative

variable C15 equal 0.5*(0.335668559279493+-7.862389341907)
variable C25 equal 0.5*(-34.9824995973955+13.0247214132235)
variable C35 equal 0.5*(-40.2422213717815+39.8151116573337)
variable C45 equal 0.5*(-17.2683125459043+16.7583323431255)
variable C55 equal 0.5*(22.5730743784527+36.4342352256386)
variable C65 equal 0.5*(3.86870834451865+0.9419057553126)

# Delete dir to make sure it is not reused

variable dir delete

# uxy Perturbation

variable dir equal 6
include displace.mod
# NOTE: This script should not need to be
# modified. See in.elastic for more info.
#
# Find which reference length to use

variable len0 equal 7.47179647029971

# Reset box and simulation parameters

clear
box tilt large
read_restart restart.equil
Reading restart file ...
  restart file = 29 Sep 2021, LAMMPS = 29 Sep 2021
  restoring atom style atomic from restart
  triclinic box = (-0.015245552 -0.010220454 -0.012858557) to (11.130214 7.4615760 9.3875572) with tilt (-0.17466860 -0.15395947 -1.9301423)
  pair style nequip stores no restart info
  62 atoms
  read_restart CPU = 0.000 seconds
include potential.mod
# NOTE: This script can be modified for different pair styles
# See in.elastic for more info.

# we must undefine any fix ave/* fix before using reset_timestep
if "$(is_defined(fix,avp))" then "unfix avp"
reset_timestep 0

newton off

# Choose potential
# pair_style	sw
# pair_coeff * * Si.sw Si
pair_style	nequip
pair_coeff	* * tob9_l3-deployed.pth Ca H O Si

atom_modify sort 0 0.0
#kspace_style	ewald 1.0e-6# Setup neighbor style

neighbor 2.0 bin
neigh_modify once no every 1 delay 0 check yes

# Setup output

fix avp all ave/time  10 10 100 c_thermo_press mode vector

#min_style cg
#minimize 1.0e-15 1.0e-15 100000 100000 #设置能量最小化

thermo		100
thermo_style custom step temp pe press f_avp[1] f_avp[2] f_avp[3] f_avp[4] f_avp[5] f_avp[6]
thermo_modify norm no

# Setup MD

timestep 0.0001
fix 4 all nve
fix 5 all langevin 300 300 0.007 123457

# Negative deformation

variable delta equal -0.02*7.47179647029971
variable deltaxy equal -0.02*xy
variable deltaxz equal -0.02*xz
variable deltayz equal -0.02*yz
change_box all xy delta -0.149435929405994 remap units box
Changing box ...
  triclinic box = (-0.015245552 -0.010220454 -0.012858557) to (11.130214 7.4615760 9.3875572) with tilt (-0.32410453 -0.15395947 -1.9301423)

# Run MD

run 1000
  update every 1 steps, delay 0 steps, check yes
Step Temp PotEng Press f_avp[1] f_avp[2] f_avp[3] f_avp[4] f_avp[5] f_avp[6]
0    302.88291   -454.05307    6753.3979            0            0            0            0            0            0
Averages over the last 6 of 11 rows, steps 500 to 1000:
Temp PotEng Press f_avp[1] f_avp[2] f_avp[3] f_avp[4] f_avp[5] f_avp[6]
290.603 -453.625 4854.85 14267.1 -10860.3 12916.7 24140.2 -1475.95 -3308.62
Loop time of 445.206 on 1 procs for 1000 steps with 62 atoms

include potential.mod
# NOTE: This script can be modified for different pair styles
# See in.elastic for more info.

# we must undefine any fix ave/* fix before using reset_timestep
if "$(is_defined(fix,avp))" then "unfix avp"
unfix avp
reset_timestep 0

newton off

# Choose potential
# pair_style	sw
# pair_coeff * * Si.sw Si
pair_style	nequip
pair_coeff	* * tob9_l3-deployed.pth Ca H O Si

atom_modify sort 0 0.0
#kspace_style	ewald 1.0e-6# Setup neighbor style

neighbor 2.0 bin
neigh_modify once no every 1 delay 0 check yes

# Setup output

fix avp all ave/time  10 10 100 c_thermo_press mode vector

#min_style cg
#minimize 1.0e-15 1.0e-15 100000 100000 #设置能量最小化

thermo		100
thermo_style custom step temp pe press f_avp[1] f_avp[2] f_avp[3] f_avp[4] f_avp[5] f_avp[6]
thermo_modify norm no

# Setup MD

timestep 0.0001
fix 4 all nve
fix 5 all langevin 300 300 0.007 123457

run 300
Step Temp PotEng Press f_avp[1] f_avp[2] f_avp[3] f_avp[4] f_avp[5] f_avp[6]
0    275.06209   -453.44913   -4772.7956            0            0            0            0            0            0
Loop time of 140.456 on 1 procs for 300 steps with 62 atoms

# Obtain new stress tensor

variable pxx1 equal f_avp[1]
variable pyy1 equal f_avp[2]
variable pzz1 equal f_avp[3]
variable pxy1 equal f_avp[4]
variable pxz1 equal f_avp[5]
variable pyz1 equal f_avp[6]

# Compute elastic constant from pressure tensor

variable C1neg equal 6.190957942829
variable C2neg equal -26.3430725511415
variable C3neg equal -39.2413038805453
variable C4neg equal -21.5391726427843
variable C5neg equal 1.8373069857877
variable C6neg equal 53.4183694459737

# Reset box and simulation parameters

clear
box tilt large
read_restart restart.equil
Reading restart file ...
  restart file = 29 Sep 2021, LAMMPS = 29 Sep 2021
  restoring atom style atomic from restart
  triclinic box = (-0.015245552 -0.010220454 -0.012858557) to (11.130214 7.4615760 9.3875572) with tilt (-0.17466860 -0.15395947 -1.9301423)
  pair style nequip stores no restart info
  62 atoms
  read_restart CPU = 0.000 seconds
include potential.mod
# NOTE: This script can be modified for different pair styles
# See in.elastic for more info.

# we must undefine any fix ave/* fix before using reset_timestep
if "$(is_defined(fix,avp))" then "unfix avp"
reset_timestep 0

newton off

# Choose potential
# pair_style	sw
# pair_coeff * * Si.sw Si
pair_style	nequip
pair_coeff	* * tob9_l3-deployed.pth Ca H O Si

atom_modify sort 0 0.0
#kspace_style	ewald 1.0e-6# Setup neighbor style

neighbor 2.0 bin
neigh_modify once no every 1 delay 0 check yes

# Setup output

fix avp all ave/time  10 10 100 c_thermo_press mode vector

#min_style cg
#minimize 1.0e-15 1.0e-15 100000 100000 #设置能量最小化

thermo		100
thermo_style custom step temp pe press f_avp[1] f_avp[2] f_avp[3] f_avp[4] f_avp[5] f_avp[6]
thermo_modify norm no

# Setup MD

timestep 0.0001
fix 4 all nve
fix 5 all langevin 300 300 0.007 123457

# Positive deformation

variable delta equal 0.02*7.47179647029971
variable deltaxy equal 0.02*xy
variable deltaxz equal 0.02*xz
variable deltayz equal 0.02*yz
change_box all xy delta 0.149435929405994 remap units box
Changing box ...
  triclinic box = (-0.015245552 -0.010220454 -0.012858557) to (11.130214 7.4615760 9.3875572) with tilt (-0.025232671 -0.15395947 -1.9301423)

# Run MD

run 1000
  update every 1 steps, delay 0 steps, check yes
Step Temp PotEng Press f_avp[1] f_avp[2] f_avp[3] f_avp[4] f_avp[5] f_avp[6]
0    302.88291   -454.27701    5107.3936            0            0            0            0            0            0
Averages over the last 6 of 11 rows, steps 500 to 1000:
Temp PotEng Press f_avp[1] f_avp[2] f_avp[3] f_avp[4] f_avp[5] f_avp[6]
290.583 -453.841 4937.63 14090.2 -10062.2 12485.7 4037.25 -4179.8 -1242.66
Loop time of 444.732 on 1 procs for 1000 steps with 62 atoms

include potential.mod
# NOTE: This script can be modified for different pair styles
# See in.elastic for more info.

# we must undefine any fix ave/* fix before using reset_timestep
if "$(is_defined(fix,avp))" then "unfix avp"
unfix avp
reset_timestep 0

newton off

# Choose potential
# pair_style	sw
# pair_coeff * * Si.sw Si
pair_style	nequip
pair_coeff	* * tob9_l3-deployed.pth Ca H O Si

atom_modify sort 0 0.0
#kspace_style	ewald 1.0e-6# Setup neighbor style

neighbor 2.0 bin
neigh_modify once no every 1 delay 0 check yes

# Setup output

fix avp all ave/time  10 10 100 c_thermo_press mode vector

#min_style cg
#minimize 1.0e-15 1.0e-15 100000 100000 #设置能量最小化

thermo		100
thermo_style custom step temp pe press f_avp[1] f_avp[2] f_avp[3] f_avp[4] f_avp[5] f_avp[6]
thermo_modify norm no

# Setup MD

timestep 0.0001
fix 4 all nve
fix 5 all langevin 300 300 0.007 123457

run 300
Step Temp PotEng Press f_avp[1] f_avp[2] f_avp[3] f_avp[4] f_avp[5] f_avp[6]
0     273.5396   -453.64316    -4760.965            0            0            0            0            0            0
Loop time of 140.493 on 1 procs for 300 steps with 62 atoms

# Obtain new stress tensor

variable pxx1 equal f_avp[1]
variable pyy1 equal f_avp[2]
variable pzz1 equal f_avp[3]
variable pxy1 equal f_avp[4]
variable pxz1 equal f_avp[5]
variable pyz1 equal f_avp[6]

# Compute elastic constant from pressure tensor

variable C1pos equal -2.93217127894999
variable C2pos equal 19.231627205146
variable C3pos equal 40.7144169355171
variable C4pos equal 12.27184289332
variable C5pos equal 15.0860000040112
variable C6pos equal 49.7950253432244

# Combine positive and negative

variable C16 equal 0.5*(6.190957942829+-2.93217127894999)
variable C26 equal 0.5*(-26.3430725511415+19.231627205146)
variable C36 equal 0.5*(-39.2413038805453+40.7144169355171)
variable C46 equal 0.5*(-21.5391726427843+12.27184289332)
variable C56 equal 0.5*(1.8373069857877+15.0860000040112)
variable C66 equal 0.5*(53.4183694459737+49.7950253432244)

# Delete dir to make sure it is not reused

variable dir delete

# Output final values

variable C11all equal 169.596896297126
variable C22all equal 169.106147071162
variable C33all equal 113.844377992998

variable C12all equal 0.5*(55.9865073772712+52.6776159093389)
variable C13all equal 0.5*(41.2739803662403+38.6348657859631)
variable C23all equal 0.5*(45.1245701707631+49.7817706018825)

variable C44all equal 42.0401746759495
variable C55all equal 29.5036548020457
variable C66all equal 51.6066973945991

variable C14all equal 0.5*(1.58368931590575+0.63718633811785)
variable C15all equal 0.5*(-3.76336039131375+-3.05630608967367)
variable C16all equal 0.5*(1.6293933319395+4.32790495115)

variable C24all equal 0.5*(4.29611692551225+3.871703253038)
variable C25all equal 0.5*(-10.978889092086+-11.8836011532993)
variable C26all equal 0.5*(-3.55572267299775+-0.445793530123202)

variable C34all equal 0.5*(3.4089609315768+1.31236961134485)
variable C35all equal 0.5*(-0.213554857223897+1.84859582019228)
variable C36all equal 0.5*(0.736556527485899+3.31176048296038)

variable C45all equal 0.5*(-0.254990101389401+0.0746427556316553)
variable C46all equal 0.5*(-4.63366487473215+-4.71842419533285)
variable C56all equal 0.5*(8.46165349489945+2.40530704991563)

print "========================================="
=========================================
print "Components of the Elastic Constant Tensor"
Components of the Elastic Constant Tensor
print "========================================="
=========================================

Elastic Constant C11all = 169.596896297126 GPa
Elastic Constant C22all = 169.106147071162 GPa
Elastic Constant C33all = 113.844377992998 GPa

Elastic Constant C12all = 54.3320616433051 GPa
Elastic Constant C13all = 39.9544230761017 GPa
Elastic Constant C23all = 47.4531703863228 GPa

Elastic Constant C44all = 42.0401746759495 GPa
Elastic Constant C55all = 29.5036548020457 GPa
Elastic Constant C66all = 51.6066973945991 GPa

Elastic Constant C14all = 1.1104378270118 GPa
Elastic Constant C15all = -3.40983324049371 GPa
Elastic Constant C16all = 2.97864914154475 GPa

Elastic Constant C24all = 4.08391008927513 GPa
Elastic Constant C25all = -11.4312451226926 GPa
Elastic Constant C26all = -2.00075810156048 GPa

Elastic Constant C34all = 2.36066527146082 GPa
Elastic Constant C35all = 0.817520481484192 GPa
Elastic Constant C36all = 2.02415850522314 GPa

Elastic Constant C45all = -0.0901736728788728 GPa
Elastic Constant C46all = -4.6760445350325 GPa
Elastic Constant C56all = 5.43348027240754 GPa

print " "

print "Cij tensor matrix"
Cij tensor matrix
print " "

write_restart restart2
System init for write_restart ...
