LAMMPS (29 Sep 2021 - Update 2)
# Compute elastic constant tensor for a crystal at finite temperature
#
# WARNING: This script attempts to measure small differences in
# statistical averages generated by finite temperature MD simulations.
# This creates many more opportunities for errors to occur, compared
# to the zero temperature version provided in examples/ELASTIC.
# Hence, it is always a good idea to start with the zero temperature
# calculation, before attempting to use this script.
#
# Written by Aidan Thompson (Sandia, athomps@sandia.gov)
#
#  This script uses the following three include files.
#
#   init.mod      (must be modified for different crystal structures)
# 	       	  Define units, MD parameters, deformation parameters,
#		  and initial configuration of the atoms and simulation cell.
#
#
#   potential.mod    (must be modified for different pair styles)
# 		     Define pair style and other attributes
#		     not stored in restart file
#
#
#   displace.mod    (displace.mod should not need to be modified)
# 		    Perform positive and negative box displacements
# 		    It uses the resultant changes
#		    in stress to compute one
# 		    row of the elastic stiffness tensor
#
#		    Inputs variables:
#		    	   dir = the Voigt deformation component
#		    		    (1,2,3,4,5,6)
#		    Global constants:
#       	    	   up = the deformation magnitude (strain units)
#       		   cfac = conversion from LAMMPS pressure units to
#               	   output units for elastic constants
#
#
#  To run this on a different system, it should only be necessary to
#  modify the files init.mod and potential.mod. In order to calculate
#  the elastic constants correctly, care must be taken to specify
#  the correct units in init.mod (units, cfac and cunits). It is also
#  important to verify that the MD sampling of stress components
#  is generating accurate statistical averages.
#  One indication of this is that the elastic constants are insensitive
#  check for finite size effects.
#

# include init.mod

# NOTE: This script can be modified for different atomic structures,
# units, etc. See in.elastic for more info.
#

# Define the finite deformation size. Try several values of this
# variable to verify that results do not depend on it.
variable up equal 2.0e-2

# real units, elastic constants in GPa
units		metal
atom_style atomic
variable cfac equal 1.0e-4
variable cunits string GPa

# Define MD parameters
variable nevery equal 10                  # sampling interval
variable nrepeat equal 10                 # number of samples
variable nfreq equal 10*10
variable nthermo equal 100
variable nequil equal 10*100
variable nrun equal 3*100
variable temp equal 300                   # temperature of initial sample
variable timestep equal 0.0001             # timestep
variable adiabatic equal 2                # adiabatic (1) or isothermal (2)
variable tdamp equal 0.01                 # time constant for thermostat
variable seed equal 123457                # seed for thermostat

# generate the box and atom positions using a diamond lattice
variable a equal 5.431

boundary	p p p
newton off

box tilt large
read_data tob14_ref_deepmd.data
Reading data file ...
  triclinic box = (0.0000000 0.0000000 0.0000000) to (6.9541015 6.3530143 28.422936) with tilt (2.6303553 0.54033995 1.3928068)
  reading atoms ...
  104 atoms

pair_style	nequip
pair_coeff	* * tob14_l3-deployed.pth Ca Si O H
mass            1 40.079800
mass            2 28.08500
mass            3 15.9994
mass            4 1.00794

change_box all triclinic
Changing box ...
  triclinic box = (0.0000000 0.0000000 0.0000000) to (6.9541015 6.3530143 28.422936) with tilt (2.6303553 0.54033995 1.3928068)

velocity	all create 300 87287

thermo 100
min_style cg
minimize 1.0e-15 1.0e-15 100000 100000 #设置能量最小化
  update every 1 steps, delay 0 steps, check yes
Step Temp E_pair E_mol TotEng Press
0          300   -656.03473            0   -652.04059   -42056.682
Loop time of 31.8771 on 1 procs for 138 steps with 104 atoms

Minimization stats:
  Stopping criterion = energy tolerance
  Energy initial, next-to-last, final =
  Force two-norm initial, final = 18.323520 0.086581085
  Force max component initial, final = 3.9786594 0.018389562
  Final line search alpha, max atom move = 1.0000000 0.018389562
  Iterations, force evaluations = 138 276

thermo_style  custom step temp press etotal lx ly lz xy yz xz pxx pyy pzz

#timestep 0.0001

#fix 456 all nve
#fix 567 all langevin 300.0 300.0 0.01 12345

#run 5000

#unfix 456
#unfix 567
fix 123 all npt temp 300 300 0.01 iso 1.0 1.0 0.1
run 10000
Step Temp Press TotEng Lx Ly Lz Xy Yz Xz Pxx Pyy Pzz
138          300   -29134.101   -659.69342    6.9541015    6.3530143    28.422936    2.6303553    1.3928068   0.54033995   -29016.008   -37650.944    -20735.35
Averages over the last 51 of 102 rows, steps 5200 to 10138:
Temp Press TotEng Lx Ly Lz Xy Yz Xz Pxx Pyy Pzz
300.726 -341.943 -656.923 6.7935 6.2063 27.7665 2.56961 1.36064 0.527861 1423.12 -4493.88 2044.93
Loop time of 1021.03 on 1 procs for 10000 steps with 104 atoms

unfix 123

# Compute initial state

variable thermostat equal 0
include potential.mod
# NOTE: This script can be modified for different pair styles
# See in.elastic for more info.

# we must undefine any fix ave/* fix before using reset_timestep
if "$(is_defined(fix,avp))" then "unfix avp"
reset_timestep 0

newton off

# Choose potential
# pair_style	sw
# pair_coeff * * Si.sw Si
pair_style	nequip
pair_coeff	* * tob14_l3-deployed.pth Ca Si O H

atom_modify sort 0 0.0
#kspace_style	ewald 1.0e-6# Setup neighbor style

neighbor 2.0 bin
neigh_modify once no every 1 delay 0 check yes

# Setup output

fix avp all ave/time  10 10 100 c_thermo_press mode vector

#min_style cg
#minimize 1.0e-15 1.0e-15 100000 100000 #设置能量最小化

thermo		100
thermo_style custom step temp pe press f_avp[1] f_avp[2] f_avp[3] f_avp[4] f_avp[5] f_avp[6]
thermo_modify norm no

# Setup MD

timestep 0.0001
fix 4 all nve

run 1000
Step Temp PotEng Press f_avp[1] f_avp[2] f_avp[3] f_avp[4] f_avp[5] f_avp[6]
0    282.24706   -660.72754   -3841.2883            0            0            0            0            0            0
Averages over the last 6 of 11 rows, steps 500 to 1000:
Temp PotEng Press f_avp[1] f_avp[2] f_avp[3] f_avp[4] f_avp[5] f_avp[6]
294.701 -660.894 465.18 -614.149 -8641.03 -1719.81 4948.22 5230.08 -7436.85
Loop time of 105.855 on 1 procs for 1000 steps with 104 atoms

variable thermostat equal 1

print 1
1

include potential.mod
# NOTE: This script can be modified for different pair styles
# See in.elastic for more info.

# we must undefine any fix ave/* fix before using reset_timestep
if "$(is_defined(fix,avp))" then "unfix avp"
unfix avp
reset_timestep 0

newton off

# Choose potential
# pair_style	sw
# pair_coeff * * Si.sw Si
pair_style	nequip
pair_coeff	* * tob14_l3-deployed.pth Ca Si O H

atom_modify sort 0 0.0
#kspace_style	ewald 1.0e-6# Setup neighbor style

neighbor 2.0 bin
neigh_modify once no every 1 delay 0 check yes

# Setup output

fix avp all ave/time  10 10 100 c_thermo_press mode vector

#min_style cg
#minimize 1.0e-15 1.0e-15 100000 100000 #设置能量最小化

thermo		100
thermo_style custom step temp pe press f_avp[1] f_avp[2] f_avp[3] f_avp[4] f_avp[5] f_avp[6]
thermo_modify norm no

# Setup MD

timestep 0.0001
fix 4 all nve
fix 5 all langevin 300 300 0.01 123457

run 300
Step Temp PotEng Press f_avp[1] f_avp[2] f_avp[3] f_avp[4] f_avp[5] f_avp[6]
0    298.01302   -660.93781    3097.3182            0            0            0            0            0            0
Loop time of 35.8366 on 1 procs for 300 steps with 104 atoms

variable pxx0 equal f_avp[1]
variable pyy0 equal f_avp[2]
variable pzz0 equal f_avp[3]
variable pxy0 equal f_avp[4]
variable pxz0 equal f_avp[5]
variable pyz0 equal f_avp[6]

variable tmp equal lx
variable lx0 equal 6.81735301207779
variable tmp equal ly
variable ly0 equal 6.22808585839101
variable tmp equal lz
variable lz0 equal 27.8640146728677

# These formulas define the derivatives w.r.t. strain components
# Constants uses $, variables use v_
variable d1 equal -(v_pxx1-6053.41517357525)/(v_delta/v_len0)*0.0001
variable d2 equal -(v_pyy1--1387.6966315479)/(v_delta/v_len0)*0.0001
variable d3 equal -(v_pzz1-8959.077704165)/(v_delta/v_len0)*0.0001
variable d4 equal -(v_pyz1--6687.75532259446)/(v_delta/v_len0)*0.0001
variable d5 equal -(v_pxz1-2923.836534462)/(v_delta/v_len0)*0.0001
variable d6 equal -(v_pxy1-3234.00746784336)/(v_delta/v_len0)*0.0001

# Write restart
write_restart restart.equil
System init for write_restart ...

# uxx Perturbation

variable dir equal 1
include displace.mod
# NOTE: This script should not need to be
# modified. See in.elastic for more info.
#
# Find which reference length to use

variable len0 equal 6.81735301207779

# Reset box and simulation parameters

clear
box tilt large
read_restart restart.equil
Reading restart file ...
  restart file = 29 Sep 2021, LAMMPS = 29 Sep 2021
  restoring atom style atomic from restart
  triclinic box = (0.068374240 0.062464220 0.27946049) to (6.8857273 6.2905501 28.143475) with tilt (2.5786308 0.52971447 1.3654180)
  pair style nequip stores no restart info
  104 atoms
  read_restart CPU = 0.000 seconds
include potential.mod
# NOTE: This script can be modified for different pair styles
# See in.elastic for more info.

# we must undefine any fix ave/* fix before using reset_timestep
if "$(is_defined(fix,avp))" then "unfix avp"
reset_timestep 0

newton off

# Choose potential
# pair_style	sw
# pair_coeff * * Si.sw Si
pair_style	nequip
pair_coeff	* * tob14_l3-deployed.pth Ca Si O H

atom_modify sort 0 0.0
#kspace_style	ewald 1.0e-6# Setup neighbor style

neighbor 2.0 bin
neigh_modify once no every 1 delay 0 check yes

# Setup output

fix avp all ave/time  10 10 100 c_thermo_press mode vector

#min_style cg
#minimize 1.0e-15 1.0e-15 100000 100000 #设置能量最小化

thermo		100
thermo_style custom step temp pe press f_avp[1] f_avp[2] f_avp[3] f_avp[4] f_avp[5] f_avp[6]
thermo_modify norm no

# Setup MD

timestep 0.0001
fix 4 all nve
fix 5 all langevin 300 300 0.01 123457

# Negative deformation

variable delta equal -0.02*6.81735301207779
variable deltaxy equal -0.02*xy
variable deltaxz equal -0.02*xz
variable deltayz equal -0.02*yz
change_box all x delta 0 -0.136347060241556 xy delta -0.051572615996812 xz delta -0.0105942894473624 remap units box
Changing box ...
  triclinic box = (0.068374240 0.062464220 0.27946049) to (6.7493802 6.2905501 28.143475) with tilt (2.5786308 0.52971447 1.3654180)
  triclinic box = (0.068374240 0.062464220 0.27946049) to (6.7493802 6.2905501 28.143475) with tilt (2.5270582 0.52971447 1.3654180)
  triclinic box = (0.068374240 0.062464220 0.27946049) to (6.7493802 6.2905501 28.143475) with tilt (2.5270582 0.51912018 1.3654180)

# Run MD

run 1000
  update every 1 steps, delay 0 steps, check yes
Step Temp PotEng Press f_avp[1] f_avp[2] f_avp[3] f_avp[4] f_avp[5] f_avp[6]
0    292.23595   -660.33795    34456.386            0            0            0            0            0            0
Averages over the last 6 of 11 rows, steps 500 to 1000:
Temp PotEng Press f_avp[1] f_avp[2] f_avp[3] f_avp[4] f_avp[5] f_avp[6]
322.669 -660.059 21841.8 26639.8 10073.9 22373.3 8563.87 6026.46 -8608.61
Loop time of 107.287 on 1 procs for 1000 steps with 104 atoms

include potential.mod
# NOTE: This script can be modified for different pair styles
# See in.elastic for more info.

# we must undefine any fix ave/* fix before using reset_timestep
if "$(is_defined(fix,avp))" then "unfix avp"
unfix avp
reset_timestep 0

newton off

# Choose potential
# pair_style	sw
# pair_coeff * * Si.sw Si
pair_style	nequip
pair_coeff	* * tob14_l3-deployed.pth Ca Si O H

atom_modify sort 0 0.0
#kspace_style	ewald 1.0e-6# Setup neighbor style

neighbor 2.0 bin
neigh_modify once no every 1 delay 0 check yes

# Setup output

fix avp all ave/time  10 10 100 c_thermo_press mode vector

#min_style cg
#minimize 1.0e-15 1.0e-15 100000 100000 #设置能量最小化

thermo		100
thermo_style custom step temp pe press f_avp[1] f_avp[2] f_avp[3] f_avp[4] f_avp[5] f_avp[6]
thermo_modify norm no

# Setup MD

timestep 0.0001
fix 4 all nve
fix 5 all langevin 300 300 0.01 123457

run 300
Step Temp PotEng Press f_avp[1] f_avp[2] f_avp[3] f_avp[4] f_avp[5] f_avp[6]
0    313.25403   -660.31512    22069.919            0            0            0            0            0            0
Loop time of 36.4964 on 1 procs for 300 steps with 104 atoms

# Obtain new stress tensor

variable pxx1 equal f_avp[1]
variable pyy1 equal f_avp[2]
variable pzz1 equal f_avp[3]
variable pxy1 equal f_avp[4]
variable pxz1 equal f_avp[5]
variable pyz1 equal f_avp[6]

# Compute elastic constant from pressure tensor

variable C1neg equal 119.79662046607
variable C2neg equal 68.7676728848904
variable C3neg equal 106.953028046966
variable C4neg equal -10.9280197125026
variable C5neg equal 2.55088051036905
variable C6neg equal -3.46022197282369

# Reset box and simulation parameters

clear
box tilt large
read_restart restart.equil
Reading restart file ...
  restart file = 29 Sep 2021, LAMMPS = 29 Sep 2021
  restoring atom style atomic from restart
  triclinic box = (0.068374240 0.062464220 0.27946049) to (6.8857273 6.2905501 28.143475) with tilt (2.5786308 0.52971447 1.3654180)
  pair style nequip stores no restart info
  104 atoms
  read_restart CPU = 0.000 seconds
include potential.mod
# NOTE: This script can be modified for different pair styles
# See in.elastic for more info.

# we must undefine any fix ave/* fix before using reset_timestep
if "$(is_defined(fix,avp))" then "unfix avp"
reset_timestep 0

newton off

# Choose potential
# pair_style	sw
# pair_coeff * * Si.sw Si
pair_style	nequip
pair_coeff	* * tob14_l3-deployed.pth Ca Si O H

atom_modify sort 0 0.0
#kspace_style	ewald 1.0e-6# Setup neighbor style

neighbor 2.0 bin
neigh_modify once no every 1 delay 0 check yes

# Setup output

fix avp all ave/time  10 10 100 c_thermo_press mode vector

#min_style cg
#minimize 1.0e-15 1.0e-15 100000 100000 #设置能量最小化

thermo		100
thermo_style custom step temp pe press f_avp[1] f_avp[2] f_avp[3] f_avp[4] f_avp[5] f_avp[6]
thermo_modify norm no

# Setup MD

timestep 0.0001
fix 4 all nve
fix 5 all langevin 300 300 0.01 123457

# Positive deformation

variable delta equal 0.02*6.81735301207779
variable deltaxy equal 0.02*xy
variable deltaxz equal 0.02*xz
variable deltayz equal 0.02*yz
change_box all x delta 0 0.136347060241556 xy delta 0.051572615996812 xz delta 0.0105942894473624 remap units box
Changing box ...
  triclinic box = (0.068374240 0.062464220 0.27946049) to (7.0220743 6.2905501 28.143475) with tilt (2.5786308 0.52971447 1.3654180)
  triclinic box = (0.068374240 0.062464220 0.27946049) to (7.0220743 6.2905501 28.143475) with tilt (2.6302034 0.52971447 1.3654180)
  triclinic box = (0.068374240 0.062464220 0.27946049) to (7.0220743 6.2905501 28.143475) with tilt (2.6302034 0.54030876 1.3654180)

# Run MD

run 1000
  update every 1 steps, delay 0 steps, check yes
Step Temp PotEng Press f_avp[1] f_avp[2] f_avp[3] f_avp[4] f_avp[5] f_avp[6]
0    292.23595   -660.53375   -14106.917            0            0            0            0            0            0
Averages over the last 6 of 11 rows, steps 500 to 1000:
Temp PotEng Press f_avp[1] f_avp[2] f_avp[3] f_avp[4] f_avp[5] f_avp[6]
321.455 -659.908 -1424.35 -11186.9 -7624.23 8898.91 9683.92 5779.52 -7637.75
Loop time of 103.164 on 1 procs for 1000 steps with 104 atoms

include potential.mod
# NOTE: This script can be modified for different pair styles
# See in.elastic for more info.

# we must undefine any fix ave/* fix before using reset_timestep
if "$(is_defined(fix,avp))" then "unfix avp"
unfix avp
reset_timestep 0

newton off

# Choose potential
# pair_style	sw
# pair_coeff * * Si.sw Si
pair_style	nequip
pair_coeff	* * tob14_l3-deployed.pth Ca Si O H

atom_modify sort 0 0.0
#kspace_style	ewald 1.0e-6# Setup neighbor style

neighbor 2.0 bin
neigh_modify once no every 1 delay 0 check yes

# Setup output

fix avp all ave/time  10 10 100 c_thermo_press mode vector

#min_style cg
#minimize 1.0e-15 1.0e-15 100000 100000 #设置能量最小化

thermo		100
thermo_style custom step temp pe press f_avp[1] f_avp[2] f_avp[3] f_avp[4] f_avp[5] f_avp[6]
thermo_modify norm no

# Setup MD

timestep 0.0001
fix 4 all nve
fix 5 all langevin 300 300 0.01 123457

run 300
Step Temp PotEng Press f_avp[1] f_avp[2] f_avp[3] f_avp[4] f_avp[5] f_avp[6]
0    312.12076   -660.12067   -1758.6402            0            0            0            0            0            0
Loop time of 35.2614 on 1 procs for 300 steps with 104 atoms

# Obtain new stress tensor

variable pxx1 equal f_avp[1]
variable pyy1 equal f_avp[2]
variable pzz1 equal f_avp[3]
variable pxy1 equal f_avp[4]
variable pxz1 equal f_avp[5]
variable pyz1 equal f_avp[6]

# Compute elastic constant from pressure tensor

variable C1pos equal 62.519136584224
variable C2pos equal 15.760022164442
variable C3pos equal -42.5339645145729
variable C4pos equal 8.94066376863209
variable C5pos equal -2.75900677594774
variable C6pos equal -3.2675131105161

# Combine positive and negative

variable C11 equal 0.5*(119.79662046607+62.519136584224)
variable C21 equal 0.5*(68.7676728848904+15.760022164442)
variable C31 equal 0.5*(106.953028046966+-42.5339645145729)
variable C41 equal 0.5*(-10.9280197125026+8.94066376863209)
variable C51 equal 0.5*(2.55088051036905+-2.75900677594774)
variable C61 equal 0.5*(-3.46022197282369+-3.2675131105161)

# Delete dir to make sure it is not reused

variable dir delete

# uyy Perturbation

variable dir equal 2
include displace.mod
# NOTE: This script should not need to be
# modified. See in.elastic for more info.
#
# Find which reference length to use

variable len0 equal 6.22808585839101

# Reset box and simulation parameters

clear
box tilt large
read_restart restart.equil
Reading restart file ...
  restart file = 29 Sep 2021, LAMMPS = 29 Sep 2021
  restoring atom style atomic from restart
  triclinic box = (0.068374240 0.062464220 0.27946049) to (6.8857273 6.2905501 28.143475) with tilt (2.5786308 0.52971447 1.3654180)
  pair style nequip stores no restart info
  104 atoms
  read_restart CPU = 0.000 seconds
include potential.mod
# NOTE: This script can be modified for different pair styles
# See in.elastic for more info.

# we must undefine any fix ave/* fix before using reset_timestep
if "$(is_defined(fix,avp))" then "unfix avp"
reset_timestep 0

newton off

# Choose potential
# pair_style	sw
# pair_coeff * * Si.sw Si
pair_style	nequip
pair_coeff	* * tob14_l3-deployed.pth Ca Si O H

atom_modify sort 0 0.0
#kspace_style	ewald 1.0e-6# Setup neighbor style

neighbor 2.0 bin
neigh_modify once no every 1 delay 0 check yes

# Setup output

fix avp all ave/time  10 10 100 c_thermo_press mode vector

#min_style cg
#minimize 1.0e-15 1.0e-15 100000 100000 #设置能量最小化

thermo		100
thermo_style custom step temp pe press f_avp[1] f_avp[2] f_avp[3] f_avp[4] f_avp[5] f_avp[6]
thermo_modify norm no

# Setup MD

timestep 0.0001
fix 4 all nve
fix 5 all langevin 300 300 0.01 123457

# Negative deformation

variable delta equal -0.02*6.22808585839101
variable deltaxy equal -0.02*xy
variable deltaxz equal -0.02*xz
variable deltayz equal -0.02*yz
change_box all y delta 0 -0.12456171716782 yz delta -0.0273083609818218 remap units box
Changing box ...
  triclinic box = (0.068374240 0.062464220 0.27946049) to (6.8857273 6.1659884 28.143475) with tilt (2.5786308 0.52971447 1.3654180)
  triclinic box = (0.068374240 0.062464220 0.27946049) to (6.8857273 6.1659884 28.143475) with tilt (2.5786308 0.52971447 1.3381097)

# Run MD

run 1000
  update every 1 steps, delay 0 steps, check yes
Step Temp PotEng Press f_avp[1] f_avp[2] f_avp[3] f_avp[4] f_avp[5] f_avp[6]
0    292.23595   -660.48248    34779.603            0            0            0            0            0            0
Averages over the last 6 of 11 rows, steps 500 to 1000:
Temp PotEng Press f_avp[1] f_avp[2] f_avp[3] f_avp[4] f_avp[5] f_avp[6]
322.526 -660.159 22882.6 15393.1 23214.8 23705.7 6307.69 6002.56 -7810.67
Loop time of 107.459 on 1 procs for 1000 steps with 104 atoms

include potential.mod
# NOTE: This script can be modified for different pair styles
# See in.elastic for more info.

# we must undefine any fix ave/* fix before using reset_timestep
if "$(is_defined(fix,avp))" then "unfix avp"
unfix avp
reset_timestep 0

newton off

# Choose potential
# pair_style	sw
# pair_coeff * * Si.sw Si
pair_style	nequip
pair_coeff	* * tob14_l3-deployed.pth Ca Si O H

atom_modify sort 0 0.0
#kspace_style	ewald 1.0e-6# Setup neighbor style

neighbor 2.0 bin
neigh_modify once no every 1 delay 0 check yes

# Setup output

fix avp all ave/time  10 10 100 c_thermo_press mode vector

#min_style cg
#minimize 1.0e-15 1.0e-15 100000 100000 #设置能量最小化

thermo		100
thermo_style custom step temp pe press f_avp[1] f_avp[2] f_avp[3] f_avp[4] f_avp[5] f_avp[6]
thermo_modify norm no

# Setup MD

timestep 0.0001
fix 4 all nve
fix 5 all langevin 300 300 0.01 123457

run 300
Step Temp PotEng Press f_avp[1] f_avp[2] f_avp[3] f_avp[4] f_avp[5] f_avp[6]
0     311.6568   -660.38177    22641.305            0            0            0            0            0            0
Loop time of 36.5224 on 1 procs for 300 steps with 104 atoms

# Obtain new stress tensor

variable pxx1 equal f_avp[1]
variable pyy1 equal f_avp[2]
variable pzz1 equal f_avp[3]
variable pxy1 equal f_avp[4]
variable pxz1 equal f_avp[5]
variable pyz1 equal f_avp[6]

# Compute elastic constant from pressure tensor

variable C1neg equal 61.9554737393319
variable C2neg equal 127.227730610614
variable C3neg equal 114.493269219833
variable C4neg equal -6.21232664576136
variable C5neg equal 3.30318375716965
variable C6neg equal -14.7989873283304

# Reset box and simulation parameters

clear
box tilt large
read_restart restart.equil
Reading restart file ...
  restart file = 29 Sep 2021, LAMMPS = 29 Sep 2021
  restoring atom style atomic from restart
  triclinic box = (0.068374240 0.062464220 0.27946049) to (6.8857273 6.2905501 28.143475) with tilt (2.5786308 0.52971447 1.3654180)
  pair style nequip stores no restart info
  104 atoms
  read_restart CPU = 0.000 seconds
include potential.mod
# NOTE: This script can be modified for different pair styles
# See in.elastic for more info.

# we must undefine any fix ave/* fix before using reset_timestep
if "$(is_defined(fix,avp))" then "unfix avp"
reset_timestep 0

newton off

# Choose potential
# pair_style	sw
# pair_coeff * * Si.sw Si
pair_style	nequip
pair_coeff	* * tob14_l3-deployed.pth Ca Si O H

atom_modify sort 0 0.0
#kspace_style	ewald 1.0e-6# Setup neighbor style

neighbor 2.0 bin
neigh_modify once no every 1 delay 0 check yes

# Setup output

fix avp all ave/time  10 10 100 c_thermo_press mode vector

#min_style cg
#minimize 1.0e-15 1.0e-15 100000 100000 #设置能量最小化

thermo		100
thermo_style custom step temp pe press f_avp[1] f_avp[2] f_avp[3] f_avp[4] f_avp[5] f_avp[6]
thermo_modify norm no

# Setup MD

timestep 0.0001
fix 4 all nve
fix 5 all langevin 300 300 0.01 123457

# Positive deformation

variable delta equal 0.02*6.22808585839101
variable deltaxy equal 0.02*xy
variable deltaxz equal 0.02*xz
variable deltayz equal 0.02*yz
change_box all y delta 0 0.12456171716782 yz delta 0.0273083609818218 remap units box
Changing box ...
  triclinic box = (0.068374240 0.062464220 0.27946049) to (6.8857273 6.4151118 28.143475) with tilt (2.5786308 0.52971447 1.3654180)
  triclinic box = (0.068374240 0.062464220 0.27946049) to (6.8857273 6.4151118 28.143475) with tilt (2.5786308 0.52971447 1.3927264)

# Run MD

run 1000
  update every 1 steps, delay 0 steps, check yes
Step Temp PotEng Press f_avp[1] f_avp[2] f_avp[3] f_avp[4] f_avp[5] f_avp[6]
0    292.23595   -660.37494   -14251.843            0            0            0            0            0            0
Averages over the last 6 of 11 rows, steps 500 to 1000:
Temp PotEng Press f_avp[1] f_avp[2] f_avp[3] f_avp[4] f_avp[5] f_avp[6]
321.797 -659.773 -2600.15 -2054.03 -19014.6 7610.7 12262 5864.09 -8440.48
Loop time of 102.591 on 1 procs for 1000 steps with 104 atoms

include potential.mod
# NOTE: This script can be modified for different pair styles
# See in.elastic for more info.

# we must undefine any fix ave/* fix before using reset_timestep
if "$(is_defined(fix,avp))" then "unfix avp"
unfix avp
reset_timestep 0

newton off

# Choose potential
# pair_style	sw
# pair_coeff * * Si.sw Si
pair_style	nequip
pair_coeff	* * tob14_l3-deployed.pth Ca Si O H

atom_modify sort 0 0.0
#kspace_style	ewald 1.0e-6# Setup neighbor style

neighbor 2.0 bin
neigh_modify once no every 1 delay 0 check yes

# Setup output

fix avp all ave/time  10 10 100 c_thermo_press mode vector

#min_style cg
#minimize 1.0e-15 1.0e-15 100000 100000 #设置能量最小化

thermo		100
thermo_style custom step temp pe press f_avp[1] f_avp[2] f_avp[3] f_avp[4] f_avp[5] f_avp[6]
thermo_modify norm no

# Setup MD

timestep 0.0001
fix 4 all nve
fix 5 all langevin 300 300 0.01 123457

run 300
Step Temp PotEng Press f_avp[1] f_avp[2] f_avp[3] f_avp[4] f_avp[5] f_avp[6]
0    313.56721   -660.00824   -2607.3748            0            0            0            0            0            0
Loop time of 35.1495 on 1 procs for 300 steps with 104 atoms

# Obtain new stress tensor

variable pxx1 equal f_avp[1]
variable pyy1 equal f_avp[2]
variable pzz1 equal f_avp[3]
variable pxy1 equal f_avp[4]
variable pxz1 equal f_avp[5]
variable pyz1 equal f_avp[6]

# Compute elastic constant from pressure tensor

variable C1pos equal 18.5900105973775
variable C2pos equal 63.4713407291206
variable C3pos equal -36.1083085947326
variable C4pos equal 13.5263023022462
variable C5pos equal -2.341247985207
variable C6pos equal -17.9284990673163

# Combine positive and negative

variable C12 equal 0.5*(61.9554737393319+18.5900105973775)
variable C22 equal 0.5*(127.227730610614+63.4713407291206)
variable C32 equal 0.5*(114.493269219833+-36.1083085947326)
variable C42 equal 0.5*(-6.21232664576136+13.5263023022462)
variable C52 equal 0.5*(3.30318375716965+-2.341247985207)
variable C62 equal 0.5*(-14.7989873283304+-17.9284990673163)

# Delete dir to make sure it is not reused

variable dir delete

# uzz Perturbation

variable dir equal 3
include displace.mod
# NOTE: This script should not need to be
# modified. See in.elastic for more info.
#
# Find which reference length to use

variable len0 equal 27.8640146728677

# Reset box and simulation parameters

clear
box tilt large
read_restart restart.equil
Reading restart file ...
  restart file = 29 Sep 2021, LAMMPS = 29 Sep 2021
  restoring atom style atomic from restart
  triclinic box = (0.068374240 0.062464220 0.27946049) to (6.8857273 6.2905501 28.143475) with tilt (2.5786308 0.52971447 1.3654180)
  pair style nequip stores no restart info
  104 atoms
  read_restart CPU = 0.000 seconds
include potential.mod
# NOTE: This script can be modified for different pair styles
# See in.elastic for more info.

# we must undefine any fix ave/* fix before using reset_timestep
if "$(is_defined(fix,avp))" then "unfix avp"
reset_timestep 0

newton off

# Choose potential
# pair_style	sw
# pair_coeff * * Si.sw Si
pair_style	nequip
pair_coeff	* * tob14_l3-deployed.pth Ca Si O H

atom_modify sort 0 0.0
#kspace_style	ewald 1.0e-6# Setup neighbor style

neighbor 2.0 bin
neigh_modify once no every 1 delay 0 check yes

# Setup output

fix avp all ave/time  10 10 100 c_thermo_press mode vector

#min_style cg
#minimize 1.0e-15 1.0e-15 100000 100000 #设置能量最小化

thermo		100
thermo_style custom step temp pe press f_avp[1] f_avp[2] f_avp[3] f_avp[4] f_avp[5] f_avp[6]
thermo_modify norm no

# Setup MD

timestep 0.0001
fix 4 all nve
fix 5 all langevin 300 300 0.01 123457

# Negative deformation

variable delta equal -0.02*27.8640146728677
variable deltaxy equal -0.02*xy
variable deltaxz equal -0.02*xz
variable deltayz equal -0.02*yz
change_box all z delta 0 -0.557280293457354 remap units box
Changing box ...
  triclinic box = (0.068374240 0.062464220 0.27946049) to (6.8857273 6.2905501 27.586195) with tilt (2.5786308 0.52971447 1.3654180)

# Run MD

run 1000
  update every 1 steps, delay 0 steps, check yes
Step Temp PotEng Press f_avp[1] f_avp[2] f_avp[3] f_avp[4] f_avp[5] f_avp[6]
0    292.23595   -660.17462     35481.26            0            0            0            0            0            0
Averages over the last 6 of 11 rows, steps 500 to 1000:
Temp PotEng Press f_avp[1] f_avp[2] f_avp[3] f_avp[4] f_avp[5] f_avp[6]
322.474 -659.959 21466.7 13230.9 8962.01 34745.2 6677.4 5987.81 -8074.4
Loop time of 107.415 on 1 procs for 1000 steps with 104 atoms

include potential.mod
# NOTE: This script can be modified for different pair styles
# See in.elastic for more info.

# we must undefine any fix ave/* fix before using reset_timestep
if "$(is_defined(fix,avp))" then "unfix avp"
unfix avp
reset_timestep 0

newton off

# Choose potential
# pair_style	sw
# pair_coeff * * Si.sw Si
pair_style	nequip
pair_coeff	* * tob14_l3-deployed.pth Ca Si O H

atom_modify sort 0 0.0
#kspace_style	ewald 1.0e-6# Setup neighbor style

neighbor 2.0 bin
neigh_modify once no every 1 delay 0 check yes

# Setup output

fix avp all ave/time  10 10 100 c_thermo_press mode vector

#min_style cg
#minimize 1.0e-15 1.0e-15 100000 100000 #设置能量最小化

thermo		100
thermo_style custom step temp pe press f_avp[1] f_avp[2] f_avp[3] f_avp[4] f_avp[5] f_avp[6]
thermo_modify norm no

# Setup MD

timestep 0.0001
fix 4 all nve
fix 5 all langevin 300 300 0.01 123457

run 300
Step Temp PotEng Press f_avp[1] f_avp[2] f_avp[3] f_avp[4] f_avp[5] f_avp[6]
0    311.95369   -660.20966    20725.609            0            0            0            0            0            0
Loop time of 36.5217 on 1 procs for 300 steps with 104 atoms

# Obtain new stress tensor

variable pxx1 equal f_avp[1]
variable pyy1 equal f_avp[2]
variable pzz1 equal f_avp[3]
variable pxy1 equal f_avp[4]
variable pxz1 equal f_avp[5]
variable pyz1 equal f_avp[6]

# Compute elastic constant from pressure tensor

variable C1neg equal 48.4268790646552
variable C2neg equal 61.25424111555
variable C3neg equal 159.838576509784
variable C4neg equal -9.809930900976
variable C5neg equal 2.90529977435405
variable C6neg equal -10.5795040389804

# Reset box and simulation parameters

clear
box tilt large
read_restart restart.equil
Reading restart file ...
  restart file = 29 Sep 2021, LAMMPS = 29 Sep 2021
  restoring atom style atomic from restart
  triclinic box = (0.068374240 0.062464220 0.27946049) to (6.8857273 6.2905501 28.143475) with tilt (2.5786308 0.52971447 1.3654180)
  pair style nequip stores no restart info
  104 atoms
  read_restart CPU = 0.000 seconds
include potential.mod
# NOTE: This script can be modified for different pair styles
# See in.elastic for more info.

# we must undefine any fix ave/* fix before using reset_timestep
if "$(is_defined(fix,avp))" then "unfix avp"
reset_timestep 0

newton off

# Choose potential
# pair_style	sw
# pair_coeff * * Si.sw Si
pair_style	nequip
pair_coeff	* * tob14_l3-deployed.pth Ca Si O H

atom_modify sort 0 0.0
#kspace_style	ewald 1.0e-6# Setup neighbor style

neighbor 2.0 bin
neigh_modify once no every 1 delay 0 check yes

# Setup output

fix avp all ave/time  10 10 100 c_thermo_press mode vector

#min_style cg
#minimize 1.0e-15 1.0e-15 100000 100000 #设置能量最小化

thermo		100
thermo_style custom step temp pe press f_avp[1] f_avp[2] f_avp[3] f_avp[4] f_avp[5] f_avp[6]
thermo_modify norm no

# Setup MD

timestep 0.0001
fix 4 all nve
fix 5 all langevin 300 300 0.01 123457

# Positive deformation

variable delta equal 0.02*27.8640146728677
variable deltaxy equal 0.02*xy
variable deltaxz equal 0.02*xz
variable deltayz equal 0.02*yz
change_box all z delta 0 0.557280293457354 remap units box
Changing box ...
  triclinic box = (0.068374240 0.062464220 0.27946049) to (6.8857273 6.2905501 28.700755) with tilt (2.5786308 0.52971447 1.3654180)

# Run MD

run 1000
  update every 1 steps, delay 0 steps, check yes
Step Temp PotEng Press f_avp[1] f_avp[2] f_avp[3] f_avp[4] f_avp[5] f_avp[6]
0    292.23595   -660.63165   -14790.223            0            0            0            0            0            0
Averages over the last 6 of 11 rows, steps 500 to 1000:
Temp PotEng Press f_avp[1] f_avp[2] f_avp[3] f_avp[4] f_avp[5] f_avp[6]
321.767 -660.046 -1744.8 -382 -6776.34 -2767.52 11382.1 5869.84 -8028.98
Loop time of 97.1749 on 1 procs for 1000 steps with 104 atoms

include potential.mod
# NOTE: This script can be modified for different pair styles
# See in.elastic for more info.

# we must undefine any fix ave/* fix before using reset_timestep
if "$(is_defined(fix,avp))" then "unfix avp"
unfix avp
reset_timestep 0

newton off

# Choose potential
# pair_style	sw
# pair_coeff * * Si.sw Si
pair_style	nequip
pair_coeff	* * tob14_l3-deployed.pth Ca Si O H

atom_modify sort 0 0.0
#kspace_style	ewald 1.0e-6# Setup neighbor style

neighbor 2.0 bin
neigh_modify once no every 1 delay 0 check yes

# Setup output

fix avp all ave/time  10 10 100 c_thermo_press mode vector

#min_style cg
#minimize 1.0e-15 1.0e-15 100000 100000 #设置能量最小化

thermo		100
thermo_style custom step temp pe press f_avp[1] f_avp[2] f_avp[3] f_avp[4] f_avp[5] f_avp[6]
thermo_modify norm no

# Setup MD

timestep 0.0001
fix 4 all nve
fix 5 all langevin 300 300 0.01 123457

run 300
Step Temp PotEng Press f_avp[1] f_avp[2] f_avp[3] f_avp[4] f_avp[5] f_avp[6]
0    313.52419   -660.28802   -1524.8823            0            0            0            0            0            0
Loop time of 35.1099 on 1 procs for 300 steps with 104 atoms

# Obtain new stress tensor

variable pxx1 equal f_avp[1]
variable pyy1 equal f_avp[2]
variable pzz1 equal f_avp[3]
variable pxy1 equal f_avp[4]
variable pxz1 equal f_avp[5]
variable pyz1 equal f_avp[6]

# Compute elastic constant from pressure tensor

variable C1pos equal 8.02760103286415
variable C2pos equal 10.6613767095835
variable C3pos equal 9.06816012626195
variable C4pos equal 9.21746969369205
variable C5pos equal -2.13836223645045
variable C6pos equal -11.60324467195

# Combine positive and negative

variable C13 equal 0.5*(48.4268790646552+8.02760103286415)
variable C23 equal 0.5*(61.25424111555+10.6613767095835)
variable C33 equal 0.5*(159.838576509784+9.06816012626195)
variable C43 equal 0.5*(-9.809930900976+9.21746969369205)
variable C53 equal 0.5*(2.90529977435405+-2.13836223645045)
variable C63 equal 0.5*(-10.5795040389804+-11.60324467195)

# Delete dir to make sure it is not reused

variable dir delete

# uyz Perturbation

variable dir equal 4
include displace.mod
# NOTE: This script should not need to be
# modified. See in.elastic for more info.
#
# Find which reference length to use

variable len0 equal 27.8640146728677

# Reset box and simulation parameters

clear
box tilt large
read_restart restart.equil
Reading restart file ...
  restart file = 29 Sep 2021, LAMMPS = 29 Sep 2021
  restoring atom style atomic from restart
  triclinic box = (0.068374240 0.062464220 0.27946049) to (6.8857273 6.2905501 28.143475) with tilt (2.5786308 0.52971447 1.3654180)
  pair style nequip stores no restart info
  104 atoms
  read_restart CPU = 0.000 seconds
include potential.mod
# NOTE: This script can be modified for different pair styles
# See in.elastic for more info.

# we must undefine any fix ave/* fix before using reset_timestep
if "$(is_defined(fix,avp))" then "unfix avp"
reset_timestep 0

newton off

# Choose potential
# pair_style	sw
# pair_coeff * * Si.sw Si
pair_style	nequip
pair_coeff	* * tob14_l3-deployed.pth Ca Si O H

atom_modify sort 0 0.0
#kspace_style	ewald 1.0e-6# Setup neighbor style

neighbor 2.0 bin
neigh_modify once no every 1 delay 0 check yes

# Setup output

fix avp all ave/time  10 10 100 c_thermo_press mode vector

#min_style cg
#minimize 1.0e-15 1.0e-15 100000 100000 #设置能量最小化

thermo		100
thermo_style custom step temp pe press f_avp[1] f_avp[2] f_avp[3] f_avp[4] f_avp[5] f_avp[6]
thermo_modify norm no

# Setup MD

timestep 0.0001
fix 4 all nve
fix 5 all langevin 300 300 0.01 123457

# Negative deformation

variable delta equal -0.02*27.8640146728677
variable deltaxy equal -0.02*xy
variable deltaxz equal -0.02*xz
variable deltayz equal -0.02*yz
change_box all yz delta -0.557280293457354 remap units box
Changing box ...
  triclinic box = (0.068374240 0.062464220 0.27946049) to (6.8857273 6.2905501 28.143475) with tilt (2.5786308 0.52971447 0.80813776)

# Run MD

run 1000
  update every 1 steps, delay 0 steps, check yes
Step Temp PotEng Press f_avp[1] f_avp[2] f_avp[3] f_avp[4] f_avp[5] f_avp[6]
0    292.23595   -660.75208    8236.4528            0            0            0            0            0            0
Averages over the last 6 of 11 rows, steps 500 to 1000:
Temp PotEng Press f_avp[1] f_avp[2] f_avp[3] f_avp[4] f_avp[5] f_avp[6]
321.75 -660.177 9390.34 5849.43 1267.97 15405.2 8974.1 3525.12 -1360.07
Loop time of 105.077 on 1 procs for 1000 steps with 104 atoms

include potential.mod
# NOTE: This script can be modified for different pair styles
# See in.elastic for more info.

# we must undefine any fix ave/* fix before using reset_timestep
if "$(is_defined(fix,avp))" then "unfix avp"
unfix avp
reset_timestep 0

newton off

# Choose potential
# pair_style	sw
# pair_coeff * * Si.sw Si
pair_style	nequip
pair_coeff	* * tob14_l3-deployed.pth Ca Si O H

atom_modify sort 0 0.0
#kspace_style	ewald 1.0e-6# Setup neighbor style

neighbor 2.0 bin
neigh_modify once no every 1 delay 0 check yes

# Setup output

fix avp all ave/time  10 10 100 c_thermo_press mode vector

#min_style cg
#minimize 1.0e-15 1.0e-15 100000 100000 #设置能量最小化

thermo		100
thermo_style custom step temp pe press f_avp[1] f_avp[2] f_avp[3] f_avp[4] f_avp[5] f_avp[6]
thermo_modify norm no

# Setup MD

timestep 0.0001
fix 4 all nve
fix 5 all langevin 300 300 0.01 123457

run 300
Step Temp PotEng Press f_avp[1] f_avp[2] f_avp[3] f_avp[4] f_avp[5] f_avp[6]
0    314.05604   -660.44183    9333.0259            0            0            0            0            0            0
Loop time of 35.9359 on 1 procs for 300 steps with 104 atoms

# Obtain new stress tensor

variable pxx1 equal f_avp[1]
variable pyy1 equal f_avp[2]
variable pzz1 equal f_avp[3]
variable pxy1 equal f_avp[4]
variable pxz1 equal f_avp[5]
variable pyz1 equal f_avp[6]

# Compute elastic constant from pressure tensor

variable C1neg equal 16.7619490022932
variable C2neg equal 27.6588834975311
variable C3neg equal 73.0657337082825
variable C4neg equal 20.5591981644185
variable C5neg equal -10.465356158057
variable C6neg equal -0.293904717584599

# Reset box and simulation parameters

clear
box tilt large
read_restart restart.equil
Reading restart file ...
  restart file = 29 Sep 2021, LAMMPS = 29 Sep 2021
  restoring atom style atomic from restart
  triclinic box = (0.068374240 0.062464220 0.27946049) to (6.8857273 6.2905501 28.143475) with tilt (2.5786308 0.52971447 1.3654180)
  pair style nequip stores no restart info
  104 atoms
  read_restart CPU = 0.000 seconds
include potential.mod
# NOTE: This script can be modified for different pair styles
# See in.elastic for more info.

# we must undefine any fix ave/* fix before using reset_timestep
if "$(is_defined(fix,avp))" then "unfix avp"
reset_timestep 0

newton off

# Choose potential
# pair_style	sw
# pair_coeff * * Si.sw Si
pair_style	nequip
pair_coeff	* * tob14_l3-deployed.pth Ca Si O H

atom_modify sort 0 0.0
#kspace_style	ewald 1.0e-6# Setup neighbor style

neighbor 2.0 bin
neigh_modify once no every 1 delay 0 check yes

# Setup output

fix avp all ave/time  10 10 100 c_thermo_press mode vector

#min_style cg
#minimize 1.0e-15 1.0e-15 100000 100000 #设置能量最小化

thermo		100
thermo_style custom step temp pe press f_avp[1] f_avp[2] f_avp[3] f_avp[4] f_avp[5] f_avp[6]
thermo_modify norm no

# Setup MD

timestep 0.0001
fix 4 all nve
fix 5 all langevin 300 300 0.01 123457

# Positive deformation

variable delta equal 0.02*27.8640146728677
variable deltaxy equal 0.02*xy
variable deltaxz equal 0.02*xz
variable deltayz equal 0.02*yz
change_box all yz delta 0.557280293457354 remap units box
Changing box ...
  triclinic box = (0.068374240 0.062464220 0.27946049) to (6.8857273 6.2905501 28.143475) with tilt (2.5786308 0.52971447 1.9226983)

# Run MD

run 1000
  update every 1 steps, delay 0 steps, check yes
Step Temp PotEng Press f_avp[1] f_avp[2] f_avp[3] f_avp[4] f_avp[5] f_avp[6]
0    292.23595   -660.53009    9584.5965            0            0            0            0            0            0
Averages over the last 6 of 11 rows, steps 500 to 1000:
Temp PotEng Press f_avp[1] f_avp[2] f_avp[3] f_avp[4] f_avp[5] f_avp[6]
322.355 -659.967 9330.31 6439.48 -83.4151 15280.9 9490.56 8306.99 -14780.8
Loop time of 105.636 on 1 procs for 1000 steps with 104 atoms

include potential.mod
# NOTE: This script can be modified for different pair styles
# See in.elastic for more info.

# we must undefine any fix ave/* fix before using reset_timestep
if "$(is_defined(fix,avp))" then "unfix avp"
unfix avp
reset_timestep 0

newton off

# Choose potential
# pair_style	sw
# pair_coeff * * Si.sw Si
pair_style	nequip
pair_coeff	* * tob14_l3-deployed.pth Ca Si O H

atom_modify sort 0 0.0
#kspace_style	ewald 1.0e-6# Setup neighbor style

neighbor 2.0 bin
neigh_modify once no every 1 delay 0 check yes

# Setup output

fix avp all ave/time  10 10 100 c_thermo_press mode vector

#min_style cg
#minimize 1.0e-15 1.0e-15 100000 100000 #设置能量最小化

thermo		100
thermo_style custom step temp pe press f_avp[1] f_avp[2] f_avp[3] f_avp[4] f_avp[5] f_avp[6]
thermo_modify norm no

# Setup MD

timestep 0.0001
fix 4 all nve
fix 5 all langevin 300 300 0.01 123457

run 300
Step Temp PotEng Press f_avp[1] f_avp[2] f_avp[3] f_avp[4] f_avp[5] f_avp[6]
0    311.62912   -660.17059    9056.8517            0            0            0            0            0            0
Loop time of 35.4323 on 1 procs for 300 steps with 104 atoms

# Obtain new stress tensor

variable pxx1 equal f_avp[1]
variable pyy1 equal f_avp[2]
variable pzz1 equal f_avp[3]
variable pxy1 equal f_avp[4]
variable pxz1 equal f_avp[5]
variable pyz1 equal f_avp[6]

# Compute elastic constant from pressure tensor

variable C1pos equal -21.7183041629467
variable C2pos equal -19.7141030860273
variable C3pos equal -73.778866587652
variable C4pos equal 39.2732103331437
variable C5pos equal -15.8923813892549
variable C6pos equal -1.95566062564735

# Combine positive and negative

variable C14 equal 0.5*(16.7619490022932+-21.7183041629467)
variable C24 equal 0.5*(27.6588834975311+-19.7141030860273)
variable C34 equal 0.5*(73.0657337082825+-73.778866587652)
variable C44 equal 0.5*(20.5591981644185+39.2732103331437)
variable C54 equal 0.5*(-10.465356158057+-15.8923813892549)
variable C64 equal 0.5*(-0.293904717584599+-1.95566062564735)

# Delete dir to make sure it is not reused

variable dir delete

# uxz Perturbation

variable dir equal 5
include displace.mod
# NOTE: This script should not need to be
# modified. See in.elastic for more info.
#
# Find which reference length to use

variable len0 equal 27.8640146728677

# Reset box and simulation parameters

clear
box tilt large
read_restart restart.equil
Reading restart file ...
  restart file = 29 Sep 2021, LAMMPS = 29 Sep 2021
  restoring atom style atomic from restart
  triclinic box = (0.068374240 0.062464220 0.27946049) to (6.8857273 6.2905501 28.143475) with tilt (2.5786308 0.52971447 1.3654180)
  pair style nequip stores no restart info
  104 atoms
  read_restart CPU = 0.000 seconds
include potential.mod
# NOTE: This script can be modified for different pair styles
# See in.elastic for more info.

# we must undefine any fix ave/* fix before using reset_timestep
if "$(is_defined(fix,avp))" then "unfix avp"
reset_timestep 0

newton off

# Choose potential
# pair_style	sw
# pair_coeff * * Si.sw Si
pair_style	nequip
pair_coeff	* * tob14_l3-deployed.pth Ca Si O H

atom_modify sort 0 0.0
#kspace_style	ewald 1.0e-6# Setup neighbor style

neighbor 2.0 bin
neigh_modify once no every 1 delay 0 check yes

# Setup output

fix avp all ave/time  10 10 100 c_thermo_press mode vector

#min_style cg
#minimize 1.0e-15 1.0e-15 100000 100000 #设置能量最小化

thermo		100
thermo_style custom step temp pe press f_avp[1] f_avp[2] f_avp[3] f_avp[4] f_avp[5] f_avp[6]
thermo_modify norm no

# Setup MD

timestep 0.0001
fix 4 all nve
fix 5 all langevin 300 300 0.01 123457

# Negative deformation

variable delta equal -0.02*27.8640146728677
variable deltaxy equal -0.02*xy
variable deltaxz equal -0.02*xz
variable deltayz equal -0.02*yz
change_box all xz delta -0.557280293457354 remap units box
Changing box ...
  triclinic box = (0.068374240 0.062464220 0.27946049) to (6.8857273 6.2905501 28.143475) with tilt (2.5786308 -0.027565821 1.3654180)

# Run MD

run 1000
  update every 1 steps, delay 0 steps, check yes
Step Temp PotEng Press f_avp[1] f_avp[2] f_avp[3] f_avp[4] f_avp[5] f_avp[6]
0    292.23595   -660.58435    9041.8065            0            0            0            0            0            0
Averages over the last 6 of 11 rows, steps 500 to 1000:
Temp PotEng Press f_avp[1] f_avp[2] f_avp[3] f_avp[4] f_avp[5] f_avp[6]
321.973 -659.99 9406.05 5968.2 619.609 15259.3 9348.8 11293.5 -10518.5
Loop time of 105.399 on 1 procs for 1000 steps with 104 atoms

include potential.mod
# NOTE: This script can be modified for different pair styles
# See in.elastic for more info.

# we must undefine any fix ave/* fix before using reset_timestep
if "$(is_defined(fix,avp))" then "unfix avp"
unfix avp
reset_timestep 0

newton off

# Choose potential
# pair_style	sw
# pair_coeff * * Si.sw Si
pair_style	nequip
pair_coeff	* * tob14_l3-deployed.pth Ca Si O H

atom_modify sort 0 0.0
#kspace_style	ewald 1.0e-6# Setup neighbor style

neighbor 2.0 bin
neigh_modify once no every 1 delay 0 check yes

# Setup output

fix avp all ave/time  10 10 100 c_thermo_press mode vector

#min_style cg
#minimize 1.0e-15 1.0e-15 100000 100000 #设置能量最小化

thermo		100
thermo_style custom step temp pe press f_avp[1] f_avp[2] f_avp[3] f_avp[4] f_avp[5] f_avp[6]
thermo_modify norm no

# Setup MD

timestep 0.0001
fix 4 all nve
fix 5 all langevin 300 300 0.01 123457

run 300
Step Temp PotEng Press f_avp[1] f_avp[2] f_avp[3] f_avp[4] f_avp[5] f_avp[6]
0     313.2532   -660.22711     8979.063            0            0            0            0            0            0
Loop time of 31.43 on 1 procs for 300 steps with 104 atoms

# Obtain new stress tensor

variable pxx1 equal f_avp[1]
variable pyy1 equal f_avp[2]
variable pzz1 equal f_avp[3]
variable pxy1 equal f_avp[4]
variable pxz1 equal f_avp[5]
variable pyz1 equal f_avp[6]

# Compute elastic constant from pressure tensor

variable C1neg equal 17.8431658554647
variable C2neg equal 24.3211211126786
variable C3neg equal 72.689039232596
variable C4neg equal -21.7123247002682
variable C5neg equal 25.9412638272953
variable C6neg equal 1.76874200099385

# Reset box and simulation parameters

clear
box tilt large
read_restart restart.equil
Reading restart file ...
  restart file = 29 Sep 2021, LAMMPS = 29 Sep 2021
  restoring atom style atomic from restart
  triclinic box = (0.068374240 0.062464220 0.27946049) to (6.8857273 6.2905501 28.143475) with tilt (2.5786308 0.52971447 1.3654180)
  pair style nequip stores no restart info
  104 atoms
  read_restart CPU = 0.000 seconds
include potential.mod
# NOTE: This script can be modified for different pair styles
# See in.elastic for more info.

# we must undefine any fix ave/* fix before using reset_timestep
if "$(is_defined(fix,avp))" then "unfix avp"
reset_timestep 0

newton off

# Choose potential
# pair_style	sw
# pair_coeff * * Si.sw Si
pair_style	nequip
pair_coeff	* * tob14_l3-deployed.pth Ca Si O H

atom_modify sort 0 0.0
#kspace_style	ewald 1.0e-6# Setup neighbor style

neighbor 2.0 bin
neigh_modify once no every 1 delay 0 check yes

# Setup output

fix avp all ave/time  10 10 100 c_thermo_press mode vector

#min_style cg
#minimize 1.0e-15 1.0e-15 100000 100000 #设置能量最小化

thermo		100
thermo_style custom step temp pe press f_avp[1] f_avp[2] f_avp[3] f_avp[4] f_avp[5] f_avp[6]
thermo_modify norm no

# Setup MD

timestep 0.0001
fix 4 all nve
fix 5 all langevin 300 300 0.01 123457

# Positive deformation

variable delta equal 0.02*27.8640146728677
variable deltaxy equal 0.02*xy
variable deltaxz equal 0.02*xz
variable deltayz equal 0.02*yz
change_box all xz delta 0.557280293457354 remap units box
Changing box ...
  triclinic box = (0.068374240 0.062464220 0.27946049) to (6.8857273 6.2905501 28.143475) with tilt (2.5786308 1.0869948 1.3654180)

# Run MD

run 1000
  update every 1 steps, delay 0 steps, check yes
Step Temp PotEng Press f_avp[1] f_avp[2] f_avp[3] f_avp[4] f_avp[5] f_avp[6]
0    292.23595   -660.67511    8881.6565            0            0            0            0            0            0
Averages over the last 6 of 11 rows, steps 500 to 1000:
Temp PotEng Press f_avp[1] f_avp[2] f_avp[3] f_avp[4] f_avp[5] f_avp[6]
322.274 -660.166 9212.72 6175 706.387 15232.9 9093.63 577.024 -5697.61
Loop time of 104.964 on 1 procs for 1000 steps with 104 atoms

include potential.mod
# NOTE: This script can be modified for different pair styles
# See in.elastic for more info.

# we must undefine any fix ave/* fix before using reset_timestep
if "$(is_defined(fix,avp))" then "unfix avp"
unfix avp
reset_timestep 0

newton off

# Choose potential
# pair_style	sw
# pair_coeff * * Si.sw Si
pair_style	nequip
pair_coeff	* * tob14_l3-deployed.pth Ca Si O H

atom_modify sort 0 0.0
#kspace_style	ewald 1.0e-6# Setup neighbor style

neighbor 2.0 bin
neigh_modify once no every 1 delay 0 check yes

# Setup output

fix avp all ave/time  10 10 100 c_thermo_press mode vector

#min_style cg
#minimize 1.0e-15 1.0e-15 100000 100000 #设置能量最小化

thermo		100
thermo_style custom step temp pe press f_avp[1] f_avp[2] f_avp[3] f_avp[4] f_avp[5] f_avp[6]
thermo_modify norm no

# Setup MD

timestep 0.0001
fix 4 all nve
fix 5 all langevin 300 300 0.01 123457

run 300
Step Temp PotEng Press f_avp[1] f_avp[2] f_avp[3] f_avp[4] f_avp[5] f_avp[6]
0    312.81905   -660.39893    9445.6207            0            0            0            0            0            0
Loop time of 36.2348 on 1 procs for 300 steps with 104 atoms

# Obtain new stress tensor

variable pxx1 equal f_avp[1]
variable pyy1 equal f_avp[2]
variable pzz1 equal f_avp[3]
variable pxy1 equal f_avp[4]
variable pxz1 equal f_avp[5]
variable pyz1 equal f_avp[6]

# Compute elastic constant from pressure tensor

variable C1pos equal -19.8585118563747
variable C2pos equal -23.3634071737042
variable C3pos equal -73.6541979930315
variable C4pos equal -2.12619824960155
variable C5pos equal 20.2785105640606
variable C6pos equal 0.107154317294599

# Combine positive and negative

variable C15 equal 0.5*(17.8431658554647+-19.8585118563747)
variable C25 equal 0.5*(24.3211211126786+-23.3634071737042)
variable C35 equal 0.5*(72.689039232596+-73.6541979930315)
variable C45 equal 0.5*(-21.7123247002682+-2.12619824960155)
variable C55 equal 0.5*(25.9412638272953+20.2785105640606)
variable C65 equal 0.5*(1.76874200099385+0.107154317294599)

# Delete dir to make sure it is not reused

variable dir delete

# uxy Perturbation

variable dir equal 6
include displace.mod
# NOTE: This script should not need to be
# modified. See in.elastic for more info.
#
# Find which reference length to use

variable len0 equal 6.22808585839101

# Reset box and simulation parameters

clear
box tilt large
read_restart restart.equil
Reading restart file ...
  restart file = 29 Sep 2021, LAMMPS = 29 Sep 2021
  restoring atom style atomic from restart
  triclinic box = (0.068374240 0.062464220 0.27946049) to (6.8857273 6.2905501 28.143475) with tilt (2.5786308 0.52971447 1.3654180)
  pair style nequip stores no restart info
  104 atoms
  read_restart CPU = 0.000 seconds
include potential.mod
# NOTE: This script can be modified for different pair styles
# See in.elastic for more info.

# we must undefine any fix ave/* fix before using reset_timestep
if "$(is_defined(fix,avp))" then "unfix avp"
reset_timestep 0

newton off

# Choose potential
# pair_style	sw
# pair_coeff * * Si.sw Si
pair_style	nequip
pair_coeff	* * tob14_l3-deployed.pth Ca Si O H

atom_modify sort 0 0.0
#kspace_style	ewald 1.0e-6# Setup neighbor style

neighbor 2.0 bin
neigh_modify once no every 1 delay 0 check yes

# Setup output

fix avp all ave/time  10 10 100 c_thermo_press mode vector

#min_style cg
#minimize 1.0e-15 1.0e-15 100000 100000 #设置能量最小化

thermo		100
thermo_style custom step temp pe press f_avp[1] f_avp[2] f_avp[3] f_avp[4] f_avp[5] f_avp[6]
thermo_modify norm no

# Setup MD

timestep 0.0001
fix 4 all nve
fix 5 all langevin 300 300 0.01 123457

# Negative deformation

variable delta equal -0.02*6.22808585839101
variable deltaxy equal -0.02*xy
variable deltaxz equal -0.02*xz
variable deltayz equal -0.02*yz
change_box all xy delta -0.12456171716782 remap units box
Changing box ...
  triclinic box = (0.068374240 0.062464220 0.27946049) to (6.8857273 6.2905501 28.143475) with tilt (2.4540691 0.52971447 1.3654180)

# Run MD

run 1000
  update every 1 steps, delay 0 steps, check yes
Step Temp PotEng Press f_avp[1] f_avp[2] f_avp[3] f_avp[4] f_avp[5] f_avp[6]
0    292.23595    -660.5636    8661.3489            0            0            0            0            0            0
Averages over the last 6 of 11 rows, steps 500 to 1000:
Temp PotEng Press f_avp[1] f_avp[2] f_avp[3] f_avp[4] f_avp[5] f_avp[6]
322.33 -659.965 7297.02 5076.61 -2270.79 12672.3 17285.3 5759.87 -8094.01
Loop time of 100.511 on 1 procs for 1000 steps with 104 atoms

include potential.mod
# NOTE: This script can be modified for different pair styles
# See in.elastic for more info.

# we must undefine any fix ave/* fix before using reset_timestep
if "$(is_defined(fix,avp))" then "unfix avp"
unfix avp
reset_timestep 0

newton off

# Choose potential
# pair_style	sw
# pair_coeff * * Si.sw Si
pair_style	nequip
pair_coeff	* * tob14_l3-deployed.pth Ca Si O H

atom_modify sort 0 0.0
#kspace_style	ewald 1.0e-6# Setup neighbor style

neighbor 2.0 bin
neigh_modify once no every 1 delay 0 check yes

# Setup output

fix avp all ave/time  10 10 100 c_thermo_press mode vector

#min_style cg
#minimize 1.0e-15 1.0e-15 100000 100000 #设置能量最小化

thermo		100
thermo_style custom step temp pe press f_avp[1] f_avp[2] f_avp[3] f_avp[4] f_avp[5] f_avp[6]
thermo_modify norm no

# Setup MD

timestep 0.0001
fix 4 all nve
fix 5 all langevin 300 300 0.01 123457

run 300
Step Temp PotEng Press f_avp[1] f_avp[2] f_avp[3] f_avp[4] f_avp[5] f_avp[6]
0    311.89874   -660.20355    7120.2599            0            0            0            0            0            0
Loop time of 31.3485 on 1 procs for 300 steps with 104 atoms

# Obtain new stress tensor

variable pxx1 equal f_avp[1]
variable pyy1 equal f_avp[2]
variable pzz1 equal f_avp[3]
variable pxy1 equal f_avp[4]
variable pxz1 equal f_avp[5]
variable pyz1 equal f_avp[6]

# Compute elastic constant from pressure tensor

variable C1neg equal 14.9094997047523
variable C2neg equal 8.22500413932056
variable C3neg equal 60.2096399487561
variable C4neg equal -10.9676474708662
variable C5neg equal 2.47021097191945
variable C6neg equal 38.9252002550773

# Reset box and simulation parameters

clear
box tilt large
read_restart restart.equil
Reading restart file ...
  restart file = 29 Sep 2021, LAMMPS = 29 Sep 2021
  restoring atom style atomic from restart
  triclinic box = (0.068374240 0.062464220 0.27946049) to (6.8857273 6.2905501 28.143475) with tilt (2.5786308 0.52971447 1.3654180)
  pair style nequip stores no restart info
  104 atoms
  read_restart CPU = 0.000 seconds
include potential.mod
# NOTE: This script can be modified for different pair styles
# See in.elastic for more info.

# we must undefine any fix ave/* fix before using reset_timestep
if "$(is_defined(fix,avp))" then "unfix avp"
reset_timestep 0

newton off

# Choose potential
# pair_style	sw
# pair_coeff * * Si.sw Si
pair_style	nequip
pair_coeff	* * tob14_l3-deployed.pth Ca Si O H

atom_modify sort 0 0.0
#kspace_style	ewald 1.0e-6# Setup neighbor style

neighbor 2.0 bin
neigh_modify once no every 1 delay 0 check yes

# Setup output

fix avp all ave/time  10 10 100 c_thermo_press mode vector

#min_style cg
#minimize 1.0e-15 1.0e-15 100000 100000 #设置能量最小化

thermo		100
thermo_style custom step temp pe press f_avp[1] f_avp[2] f_avp[3] f_avp[4] f_avp[5] f_avp[6]
thermo_modify norm no

# Setup MD

timestep 0.0001
fix 4 all nve
fix 5 all langevin 300 300 0.01 123457

# Positive deformation

variable delta equal 0.02*6.22808585839101
variable deltaxy equal 0.02*xy
variable deltaxz equal 0.02*xz
variable deltayz equal 0.02*yz
change_box all xy delta 0.12456171716782 remap units box
Changing box ...
  triclinic box = (0.068374240 0.062464220 0.27946049) to (6.8857273 6.2905501 28.143475) with tilt (2.7031925 0.52971447 1.3654180)

# Run MD

run 1000
  update every 1 steps, delay 0 steps, check yes
Step Temp PotEng Press f_avp[1] f_avp[2] f_avp[3] f_avp[4] f_avp[5] f_avp[6]
0    292.23595   -660.68817    9228.5514            0            0            0            0            0            0
Averages over the last 6 of 11 rows, steps 500 to 1000:
Temp PotEng Press f_avp[1] f_avp[2] f_avp[3] f_avp[4] f_avp[5] f_avp[6]
321.918 -660.151 11343.1 6942.66 3830.1 17732.1 1277.75 6088.37 -8157.53
Loop time of 105.892 on 1 procs for 1000 steps with 104 atoms

include potential.mod
# NOTE: This script can be modified for different pair styles
# See in.elastic for more info.

# we must undefine any fix ave/* fix before using reset_timestep
if "$(is_defined(fix,avp))" then "unfix avp"
unfix avp
reset_timestep 0

newton off

# Choose potential
# pair_style	sw
# pair_coeff * * Si.sw Si
pair_style	nequip
pair_coeff	* * tob14_l3-deployed.pth Ca Si O H

atom_modify sort 0 0.0
#kspace_style	ewald 1.0e-6# Setup neighbor style

neighbor 2.0 bin
neigh_modify once no every 1 delay 0 check yes

# Setup output

fix avp all ave/time  10 10 100 c_thermo_press mode vector

#min_style cg
#minimize 1.0e-15 1.0e-15 100000 100000 #设置能量最小化

thermo		100
thermo_style custom step temp pe press f_avp[1] f_avp[2] f_avp[3] f_avp[4] f_avp[5] f_avp[6]
thermo_modify norm no

# Setup MD

timestep 0.0001
fix 4 all nve
fix 5 all langevin 300 300 0.01 123457

run 300
Step Temp PotEng Press f_avp[1] f_avp[2] f_avp[3] f_avp[4] f_avp[5] f_avp[6]
0    314.03031   -660.37799    11338.244            0            0            0            0            0            0
Loop time of 32.152 on 1 procs for 300 steps with 104 atoms

# Obtain new stress tensor

variable pxx1 equal f_avp[1]
variable pyy1 equal f_avp[2]
variable pzz1 equal f_avp[3]
variable pxy1 equal f_avp[4]
variable pxz1 equal f_avp[5]
variable pyz1 equal f_avp[6]

# Compute elastic constant from pressure tensor

variable C1pos equal -22.4139115548203
variable C2pos equal -40.7783968762781
variable C3pos equal -85.2724054204617
variable C4pos equal 8.81172288861986
variable C5pos equal -2.9231853215088
variable C6pos equal 36.7013608788504

# Combine positive and negative

variable C16 equal 0.5*(14.9094997047523+-22.4139115548203)
variable C26 equal 0.5*(8.22500413932056+-40.7783968762781)
variable C36 equal 0.5*(60.2096399487561+-85.2724054204617)
variable C46 equal 0.5*(-10.9676474708662+8.81172288861986)
variable C56 equal 0.5*(2.47021097191945+-2.9231853215088)
variable C66 equal 0.5*(38.9252002550773+36.7013608788504)

# Delete dir to make sure it is not reused

variable dir delete

# Output final values

variable C11all equal 91.157878525147
variable C22all equal 95.3495356698673
variable C33all equal 84.453368318023

variable C12all equal 0.5*(40.2727421683547+42.2638475246662)
variable C13all equal 0.5*(28.2272400487597+32.2095317661965)
variable C23all equal 0.5*(35.9578089125667+39.1924803125502)

variable C44all equal 29.9162042487811
variable C55all equal 23.1098871956779
variable C66all equal 37.8132805669639

variable C14all equal 0.5*(-2.47817758032675+-0.993677971935255)
variable C15all equal 0.5*(-1.007673000455+-0.104063132789345)
variable C16all equal 0.5*(-3.752205925034+-3.36386754166989)

variable C24all equal 0.5*(3.9723902057519+3.65698782824242)
variable C25all equal 0.5*(0.4788569694872+0.480967885981325)
variable C26all equal 0.5*(-16.2766963684788+-16.3637431978234)

variable C34all equal 0.5*(-0.356566439684755+-0.296230603641974)
variable C35all equal 0.5*(-0.48257938021775+0.3834687689518)
variable C36all equal 0.5*(-12.5313827358528+-11.0913743554652)

variable C45all equal 0.5*(-11.9192614749349+-13.1788687736559)
variable C46all equal 0.5*(-1.07796229112317+-1.12478267161597)
variable C56all equal 0.5*(-0.226487174794675+0.937948159144224)

print "========================================="
=========================================
print "Components of the Elastic Constant Tensor"
Components of the Elastic Constant Tensor
print "========================================="
=========================================

Elastic Constant C11all = 91.157878525147 GPa
Elastic Constant C22all = 95.3495356698673 GPa
Elastic Constant C33all = 84.453368318023 GPa

Elastic Constant C12all = 41.2682948465105 GPa
Elastic Constant C13all = 30.2183859074781 GPa
Elastic Constant C23all = 37.5751446125584 GPa

Elastic Constant C44all = 29.9162042487811 GPa
Elastic Constant C55all = 23.1098871956779 GPa
Elastic Constant C66all = 37.8132805669639 GPa

Elastic Constant C14all = -1.735927776131 GPa
Elastic Constant C15all = -0.555868066622173 GPa
Elastic Constant C16all = -3.55803673335194 GPa

Elastic Constant C24all = 3.81468901699716 GPa
Elastic Constant C25all = 0.479912427734263 GPa
Elastic Constant C26all = -16.3202197831511 GPa

Elastic Constant C34all = -0.326398521663364 GPa
Elastic Constant C35all = -0.049555305632975 GPa
Elastic Constant C36all = -11.811378545659 GPa

Elastic Constant C45all = -12.5490651242954 GPa
Elastic Constant C46all = -1.10137248136957 GPa
Elastic Constant C56all = 0.355730492174774 GPa

print " "

print "Cij tensor matrix"
Cij tensor matrix
print " "

write_restart restart2
System init for write_restart ...
