LAMMPS (7 Feb 2024 - Development)
units		real
atom_style	atomic
newton off
thermo 1
dump mydmp all atom 10 dump.lammpstrj
boundary s s s
read_data aspirin.data
Reading data file ...
  orthogonal box = (0 0 0) to (10 10 10)
  reading atoms ...
  21 atoms
pair_style	schnetpack
pair_coeff	* * deployed_model 6 1 8
mass 1 12.0
mass 2 1.0
mass 3 16.0
neighbor	1.0 bin
neigh_modify    delay 0 every 1 check no
fix		1 all nve
timestep	0.5
compute atomicenergies all pe/atom
compute totalatomicenergy all reduce sum c_atomicenergies
thermo_style custom step time temp pe c_totalatomicenergy etotal press spcpu cpuremain
run 5000
Step          Time           Temp          PotEng     c_totalatomicenergy     TotEng         Press          S/CPU         CPULeft
0   0              0             -406270.31      0             -406270.31      0              0              0
Averages over the last 2501 of 5001 rows, steps 2500 to 5000:
Temp PotEng c_totalatomicenergy TotEng Press
300.755 -406288 0 -406270 3757.55
Loop time of 110.219 on 1 procs for 5000 steps with 21 atoms

print $(0.000001 * pe) file pe.dat
print -0.40629574999999995555 file pe.dat
-0.40629574999999995555
print $(0.000001 * c_totalatomicenergy) file totalatomicenergy.dat
print 0 file totalatomicenergy.dat
0
write_dump all custom output.dump id type x y z fx fy fz c_atomicenergies modify format float %20.15g
