LAMMPS (7 Feb 2024 - Development)
# Compute elastic constant tensor for a crystal at finite temperature
#
# WARNING: This script attempts to measure small differences in
# statistical averages generated by finite temperature MD simulations.
# This creates many more opportunities for errors to occur, compared
# to the zero temperature version provided in examples/ELASTIC.
# Hence, it is always a good idea to start with the zero temperature
# calculation, before attempting to use this script.
#
# Written by Aidan Thompson (Sandia, athomps@sandia.gov)
#
#  This script uses the following three include files.
#
#   init.mod      (must be modified for different crystal structures)
# 	       	  Define units, MD parameters, deformation parameters,
#		  and initial configuration of the atoms and simulation cell.
#
#
#   potential.mod    (must be modified for different pair styles)
# 		     Define pair style and other attributes
#		     not stored in restart file
#
#
#   displace.mod    (displace.mod should not need to be modified)
# 		    Perform positive and negative box displacements
# 		    It uses the resultant changes
#		    in stress to compute one
# 		    row of the elastic stiffness tensor
#
#		    Inputs variables:
#		    	   dir = the Voigt deformation component
#		    		    (1,2,3,4,5,6)
#		    Global constants:
#       	    	   up = the deformation magnitude (strain units)
#       		   cfac = conversion from LAMMPS pressure units to
#               	   output units for elastic constants
#
#
#  To run this on a different system, it should only be necessary to
#  modify the files init.mod and potential.mod. In order to calculate
#  the elastic constants correctly, care must be taken to specify
#  the correct units in init.mod (units, cfac and cunits). It is also
#  important to verify that the MD sampling of stress components
#  is generating accurate statistical averages.
#  One indication of this is that the elastic constants are insensitive
#  check for finite size effects.
#

# include init.mod

# NOTE: This script can be modified for different atomic structures,
# units, etc. See in.elastic for more info.
#

# Define the finite deformation size. Try several values of this
# variable to verify that results do not depend on it.
variable up equal 2.0e-2

# real units, elastic constants in GPa
units		metal
atom_style atomic
variable cfac equal 1.0e-4
variable cunits string GPa

# Define MD parameters
variable nevery equal 10                  # sampling interval
variable nrepeat equal 10                 # number of samples
variable nfreq equal 10*10
variable nthermo equal 100
variable nequil equal 10*100
variable nrun equal 3*100
variable temp equal 300                   # temperature of initial sample
variable timestep equal 0.001             # timestep
variable adiabatic equal 2                # adiabatic (1) or isothermal (2)
variable tdamp equal 0.01                 # time constant for thermostat
variable seed equal 123457                # seed for thermostat

# generate the box and atom positions using a diamond lattice
variable a equal 5.431

boundary	p p p
newton off

box tilt large

The 'box' command has been removed and will be ignored

read_data tob11_ref_deepmd.data
Reading data file ...
  triclinic box = (0 0 0) to (6.8037 6.184815 22.405446) with tilt (2.6646871 0.29402869 -0.26981789)
  reading atoms ...
  88 atoms

pair_style	schnetpack
pair_coeff	* * deployed_model 20 1 8 14
mass            1 40.079800
mass            4 28.08500
mass            3 15.9994
mass            2 1.00794

change_box all triclinic
Changing box ...
  triclinic box = (0 0 0) to (6.8037 6.184815 22.405446) with tilt (2.6646871 0.29402869 -0.26981789)

velocity	all create 300 87287

thermo 100
min_style cg
minimize 1.0e-15 1.0e-15 100000 100000 #设置能量最小化
Step          Temp          E_pair         E_mol          TotEng         Press
0   300           -538.00549      0             -534.6318       3822.0712
Loop time of 6.00293 on 1 procs for 15 steps with 88 atoms

Minimization stats:
  Stopping criterion = linesearch alpha is zero
  Energy initial, next-to-last, final =
  Force two-norm initial, final = 24.540592 5.5311924
  Force max component initial, final = 5.1923528 2.3300672
  Final line search alpha, max atom move = 3.2541811e-10 7.5824605e-10
  Iterations, force evaluations = 15 72

thermo_style  custom step temp press etotal lx ly lz xy yz xz pxx pyy pzz

#timestep 0.0001

#fix 456 all nve
#fix 567 all langevin 300.0 300.0 0.1 12345

#run 5000

#unfix 456
#unfix 567
fix 123 all npt temp 300 300 1 tri 1.0 1.0 1
run 10000
Step          Temp          Press          TotEng           Lx             Ly             Lz             Xy             Yz             Xz            Pxx            Pyy            Pzz
15   300            3822.0712     -540.50851      6.8037         6.184815       22.405446      2.6646871     -0.26981789     0.29402869     3496.1247      4273.3273      3696.7617
Averages over the last 51 of 102 rows, steps 5100 to 10015:
Temp Press TotEng Lx Ly Lz Xy Yz Xz Pxx Pyy Pzz
254.847 11.3952 -547.032 43.6517 48.2672 147.212 14.9348 13.8157 -11.6175 5.99344 20.6656 7.52642
Loop time of 202.68 on 1 procs for 10000 steps with 88 atoms

unfix 123

# Compute initial state

variable thermostat equal 0
include potential.mod
# NOTE: This script can be modified for different pair styles
# See in.elastic for more info.

# we must undefine any fix ave/* fix before using reset_timestep
if "$(is_defined(fix,avp))" then "unfix avp"
reset_timestep 0

newton off

# Choose potential
# pair_style	sw
# pair_coeff * * Si.sw Si
pair_style	nequip
ERROR: Unrecognized pair style 'nequip' (src/force.cpp:275)
Last command: pair_style	nequip
