LAMMPS (7 Feb 2024 - Development)
# Compute elastic constant tensor for a crystal at finite temperature
#
# WARNING: This script attempts to measure small differences in
# statistical averages generated by finite temperature MD simulations.
# This creates many more opportunities for errors to occur, compared
# to the zero temperature version provided in examples/ELASTIC.
# Hence, it is always a good idea to start with the zero temperature
# calculation, before attempting to use this script.
#
# Written by Aidan Thompson (Sandia, athomps@sandia.gov)
#
#  This script uses the following three include files.
#
#   init.mod      (must be modified for different crystal structures)
# 	       	  Define units, MD parameters, deformation parameters,
#		  and initial configuration of the atoms and simulation cell.
#
#
#   potential.mod    (must be modified for different pair styles)
# 		     Define pair style and other attributes
#		     not stored in restart file
#
#
#   displace.mod    (displace.mod should not need to be modified)
# 		    Perform positive and negative box displacements
# 		    It uses the resultant changes
#		    in stress to compute one
# 		    row of the elastic stiffness tensor
#
#		    Inputs variables:
#		    	   dir = the Voigt deformation component
#		    		    (1,2,3,4,5,6)
#		    Global constants:
#       	    	   up = the deformation magnitude (strain units)
#       		   cfac = conversion from LAMMPS pressure units to
#               	   output units for elastic constants
#
#
#  To run this on a different system, it should only be necessary to
#  modify the files init.mod and potential.mod. In order to calculate
#  the elastic constants correctly, care must be taken to specify
#  the correct units in init.mod (units, cfac and cunits). It is also
#  important to verify that the MD sampling of stress components
#  is generating accurate statistical averages.
#  One indication of this is that the elastic constants are insensitive
#  check for finite size effects.
#

# include init.mod

# NOTE: This script can be modified for different atomic structures,
# units, etc. See in.elastic for more info.
#

# Define the finite deformation size. Try several values of this
# variable to verify that results do not depend on it.
variable up equal 2.0e-2

# real units, elastic constants in GPa
units		metal
atom_style atomic
variable cfac equal 1.0e-4
variable cunits string GPa

# Define MD parameters
variable nevery equal 10                  # sampling interval
variable nrepeat equal 10                 # number of samples
variable nfreq equal 10*10
variable nthermo equal 100
variable nequil equal 10*100
variable nrun equal 3*100
variable temp equal 300                   # temperature of initial sample
variable timestep equal 0.00001             # timestep
variable adiabatic equal 2                # adiabatic (1) or isothermal (2)
variable tdamp equal 0.0001                 # time constant for thermostat
variable seed equal 123457                # seed for thermostat

# generate the box and atom positions using a diamond lattice
variable a equal 5.431

boundary	p p p
newton off

box tilt large

The 'box' command has been removed and will be ignored

read_data tob14_ref_deepmd.data
Reading data file ...
  triclinic box = (0 0 0) to (6.9541015 6.3530143 28.422936) with tilt (2.6303553 0.54033995 1.3928068)
  reading atoms ...
  104 atoms

pair_style	schnetpack
pair_coeff	* * deploy_model 20 14 8 1
mass            1 40.079800
mass            2 28.08500
mass            3 15.9994
mass            4 1.00794

change_box all triclinic
Changing box ...
  triclinic box = (0 0 0) to (6.9541015 6.3530143 28.422936) with tilt (2.6303553 0.54033995 1.3928068)

velocity	all create 300 12345

thermo 100
min_style cg
minimize 1.0e-15 1.0e-15 100000 100000 #设置能量最小化
Step          Temp          E_pair         E_mol          TotEng         Press
0   300           -634.11682      0             -630.12268      3397.4449
Loop time of 11.8472 on 1 procs for 26 steps with 104 atoms

Minimization stats:
  Stopping criterion = linesearch alpha is zero
  Energy initial, next-to-last, final =
  Force two-norm initial, final = 19.474757 12.041474
  Force max component initial, final = 4.7437563 4.6168356
  Final line search alpha, max atom move = 8.0689256e-11 3.7252903e-10
  Iterations, force evaluations = 26 319

thermo_style  custom step temp press etotal lx ly lz xy yz xz pxx pyy pzz

timestep 0.0001

thermo 100

fix 4 all nve
fix 5 all langevin 300.0 300.0 0.001 12547
#fix 4 all nvt temp 300 300 0.01
run 500
Step          Temp          Press          TotEng           Lx             Ly             Lz             Xy             Yz             Xz            Pxx            Pyy            Pzz
26   300            3397.4449     -643.65399      6.9541015      6.3530143      28.422936      2.6303553      1.3928068      0.54033995     3196.8488      3316.3257      3679.1603
Loop time of 12.0073 on 1 procs for 500 steps with 104 atoms

#unfix 4
#unfix 5

#fix 123 all nvt temp 300 300 0.01
#fix 123 all npt temp 300 300 0.01 tri 1.01325 1.01325 0.1
#run 1000

#unfix 123

# Compute initial state

variable thermostat equal 1
include potential.mod
# NOTE: This script can be modified for different pair styles
# See in.elastic for more info.

# we must undefine any fix ave/* fix before using reset_timestep
if "$(is_defined(fix,avp))" then "unfix avp"
reset_timestep 0

newton off

# Choose potential
# pair_style	sw
# pair_coeff * * Si.sw Si
pair_style	schnetpack
pair_coeff	* * deploy_model 20 14 8 1

atom_modify sort 0 0.0
#kspace_style	ewald 1.0e-6# Setup neighbor style

neighbor 2.0 bin
neigh_modify once no every 1 delay 0 check yes

# Setup output

fix avp all ave/time  10 10 100 c_thermo_press mode vector

min_style cg
minimize 1.0e-15 1.0e-15 100000 100000 #设置能量最小化
Step          Temp          Press          TotEng           Lx             Ly             Lz             Xy             Yz             Xz            Pxx            Pyy            Pzz
0   298.30032      3378.1964     -644.94866      6.9541015      6.3530143      28.422936      2.6303553      1.3928068      0.54033995     3246.16        3413.9521      3474.477
Loop time of 5.89903 on 1 procs for 29 steps with 104 atoms

Minimization stats:
  Stopping criterion = linesearch alpha is zero
  Energy initial, next-to-last, final =
  Force two-norm initial, final = 13.972933 362.66886
  Force max component initial, final = 3.3700898 201.54718
  Final line search alpha, max atom move = 3.4677474e-13 6.989147e-11
  Iterations, force evaluations = 29 119

thermo		100
thermo_style custom step temp pe press f_avp[1] f_avp[2] f_avp[3] f_avp[4] f_avp[5] f_avp[6]
thermo_modify norm no

# Setup MD

timestep 1e-05
fix 4 all nve
fix 5 all langevin 300 300 0.0001 123457

run 1000
Step          Temp          PotEng         Press         f_avp[1]       f_avp[2]       f_avp[3]       f_avp[4]       f_avp[5]       f_avp[6]
29   298.30032     -773.9928       3378.1964      0              0              0              0              0              0
Averages over the last 6 of 12 rows, steps 600 to 1029:
Temp PotEng Press f_avp[1] f_avp[2] f_avp[3] f_avp[4] f_avp[5] f_avp[6]
327.255 -805.151 3706.1 3611.15 3676.78 3459.2 21.4763 176.429 19.5584
Loop time of 23.4836 on 1 procs for 1000 steps with 104 atoms

variable thermostat equal 1

print 1
1

include potential.mod
# NOTE: This script can be modified for different pair styles
# See in.elastic for more info.

# we must undefine any fix ave/* fix before using reset_timestep
if "$(is_defined(fix,avp))" then "unfix avp"
unfix avp
reset_timestep 0

newton off

# Choose potential
# pair_style	sw
# pair_coeff * * Si.sw Si
pair_style	schnetpack
pair_coeff	* * deploy_model 20 14 8 1

atom_modify sort 0 0.0
#kspace_style	ewald 1.0e-6# Setup neighbor style

neighbor 2.0 bin
neigh_modify once no every 1 delay 0 check yes

# Setup output

fix avp all ave/time  10 10 100 c_thermo_press mode vector

min_style cg
minimize 1.0e-15 1.0e-15 100000 100000 #设置能量最小化
Step          Temp          PotEng         Press         f_avp[1]       f_avp[2]       f_avp[3]       f_avp[4]       f_avp[5]       f_avp[6]
0   343.21044     -811.83026      3886.7953      0              0              0              0              0              0
Loop time of 20.0371 on 1 procs for 76 steps with 104 atoms

Minimization stats:
  Stopping criterion = linesearch alpha is zero
  Energy initial, next-to-last, final =
  Force two-norm initial, final = 89.621374 358.11836
  Force max component initial, final = 31.073776 168.3587
  Final line search alpha, max atom move = 6.9146848e-14 1.1641474e-11
  Iterations, force evaluations = 76 830

thermo		100
thermo_style custom step temp pe press f_avp[1] f_avp[2] f_avp[3] f_avp[4] f_avp[5] f_avp[6]
thermo_modify norm no

# Setup MD

timestep 1e-05
fix 4 all nve
fix 5 all langevin 300 300 0.0001 123457

run 300
Step          Temp          PotEng         Press         f_avp[1]       f_avp[2]       f_avp[3]       f_avp[4]       f_avp[5]       f_avp[6]
76   343.21044     -1341.7976      3886.7953      0              0              0              0              0              0
Loop time of 7.02118 on 1 procs for 300 steps with 104 atoms

variable pxx0 equal f_avp[1]
variable pyy0 equal f_avp[2]
variable pzz0 equal f_avp[3]
variable pxy0 equal f_avp[4]
variable pxz0 equal f_avp[5]
variable pyz0 equal f_avp[6]

variable tmp equal lx
variable lx0 equal 6.95410149254538
variable tmp equal ly
variable ly0 equal 6.35301429848309
variable tmp equal lz
variable lz0 equal 28.4229356586947

# These formulas define the derivatives w.r.t. strain components
# Constants uses $, variables use v_
variable d1 equal -(v_pxx1-3514.44765139447)/(v_delta/v_len0)*0.0001
variable d2 equal -(v_pyy1-3492.25395777654)/(v_delta/v_len0)*0.0001
variable d3 equal -(v_pzz1-3764.03533767231)/(v_delta/v_len0)*0.0001
variable d4 equal -(v_pyz1-168.20764003459)/(v_delta/v_len0)*0.0001
variable d5 equal -(v_pxz1-74.4218851965727)/(v_delta/v_len0)*0.0001
variable d6 equal -(v_pxy1-135.124106153833)/(v_delta/v_len0)*0.0001

# Write restart
write_restart restart.equil
System init for write_restart ...

# uxx Perturbation

variable dir equal 1
include displace.mod
# NOTE: This script should not need to be
# modified. See in.elastic for more info.
#
# Find which reference length to use

variable len0 equal 6.95410149254538

# Reset box and simulation parameters

clear
box tilt large

The 'box' command has been removed and will be ignored

read_restart restart.equil
Reading restart file ...
  restart file = 7 Feb 2024, LAMMPS = 7 Feb 2024
  restoring atom style atomic from restart
  triclinic box = (0 0 0) to (6.9541015 6.3530143 28.422936) with tilt (2.6303553 0.54033995 1.3928068)
  pair style schnetpack stores no restart info
  104 atoms
  read_restart CPU = 0.000 seconds
include potential.mod
# NOTE: This script can be modified for different pair styles
# See in.elastic for more info.

# we must undefine any fix ave/* fix before using reset_timestep
if "$(is_defined(fix,avp))" then "unfix avp"
reset_timestep 0

newton off

# Choose potential
# pair_style	sw
# pair_coeff * * Si.sw Si
pair_style	schnetpack
pair_coeff	* * deploy_model 20 14 8 1

atom_modify sort 0 0.0
#kspace_style	ewald 1.0e-6# Setup neighbor style

neighbor 2.0 bin
neigh_modify once no every 1 delay 0 check yes

# Setup output

fix avp all ave/time  10 10 100 c_thermo_press mode vector

min_style cg
minimize 1.0e-15 1.0e-15 100000 100000 #设置能量最小化
Step          Temp          E_pair         E_mol          TotEng         Press
0   300.71087     -1351.0057      0             -1347.0021      3405.4954
Loop time of 12.0501 on 1 procs for 28 steps with 104 atoms

Minimization stats:
  Stopping criterion = linesearch alpha is zero
  Energy initial, next-to-last, final =
  Force two-norm initial, final = 162.26691 99.668114
  Force max component initial, final = 48.431194 35.223392
  Final line search alpha, max atom move = 6.6101062e-13 2.3283037e-11
  Iterations, force evaluations = 28 367

thermo		100
thermo_style custom step temp pe press f_avp[1] f_avp[2] f_avp[3] f_avp[4] f_avp[5] f_avp[6]
thermo_modify norm no

# Setup MD

timestep 1e-05
fix 4 all nve
fix 5 all langevin 300 300 0.0001 123457

# Negative deformation

variable delta equal -0.02*6.95410149254538
variable deltaxy equal -0.02*xy
variable deltaxz equal -0.02*xz
variable deltayz equal -0.02*yz
change_box all x delta 0 -0.139082029850908 xy delta -0.0526071050219228 xz delta -0.0108067990505754 remap units box
Changing box ...
  triclinic box = (0 0 0) to (6.8150195 6.3530143 28.422936) with tilt (2.6303553 0.54033995 1.3928068)
  triclinic box = (0 0 0) to (6.8150195 6.3530143 28.422936) with tilt (2.5777481 0.54033995 1.3928068)
  triclinic box = (0 0 0) to (6.8150195 6.3530143 28.422936) with tilt (2.5777481 0.52953315 1.3928068)

# Run MD

run 1000
Step          Temp          PotEng         Press         f_avp[1]       f_avp[2]       f_avp[3]       f_avp[4]       f_avp[5]       f_avp[6]
28   300.71087     -1452.4164      3474.9953      0              0              0              0              0              0
Averages over the last 6 of 12 rows, steps 600 to 1028:
Temp PotEng Press f_avp[1] f_avp[2] f_avp[3] f_avp[4] f_avp[5] f_avp[6]
320.202 -1472.99 3700.23 3601.42 3599.64 3534.74 -13.0794 186.586 7.46183
Loop time of 23.4868 on 1 procs for 1000 steps with 104 atoms

include potential.mod
# NOTE: This script can be modified for different pair styles
# See in.elastic for more info.

# we must undefine any fix ave/* fix before using reset_timestep
if "$(is_defined(fix,avp))" then "unfix avp"
unfix avp
reset_timestep 0

newton off

# Choose potential
# pair_style	sw
# pair_coeff * * Si.sw Si
pair_style	schnetpack
pair_coeff	* * deploy_model 20 14 8 1

atom_modify sort 0 0.0
#kspace_style	ewald 1.0e-6# Setup neighbor style

neighbor 2.0 bin
neigh_modify once no every 1 delay 0 check yes

# Setup output

fix avp all ave/time  10 10 100 c_thermo_press mode vector

min_style cg
minimize 1.0e-15 1.0e-15 100000 100000 #设置能量最小化
Step          Temp          PotEng         Press         f_avp[1]       f_avp[2]       f_avp[3]       f_avp[4]       f_avp[5]       f_avp[6]
0   344.83723     -1473.7839      3984.9166      0              0              0              0              0              0
Loop time of 16.561 on 1 procs for 25 steps with 104 atoms

Minimization stats:
  Stopping criterion = linesearch alpha is zero
  Energy initial, next-to-last, final =
  Force two-norm initial, final = 113.78191 98.608008
  Force max component initial, final = 33.78178 27.493189
  Final line search alpha, max atom move = 8.4686722e-13 2.3283081e-11
  Iterations, force evaluations = 25 576

thermo		100
thermo_style custom step temp pe press f_avp[1] f_avp[2] f_avp[3] f_avp[4] f_avp[5] f_avp[6]
thermo_modify norm no

# Setup MD

timestep 1e-05
fix 4 all nve
fix 5 all langevin 300 300 0.0001 123457

run 300
Step          Temp          PotEng         Press         f_avp[1]       f_avp[2]       f_avp[3]       f_avp[4]       f_avp[5]       f_avp[6]
25   344.83723     -1475.5626      3984.9166      0              0              0              0              0              0
Loop time of 6.99248 on 1 procs for 300 steps with 104 atoms

# Obtain new stress tensor

variable pxx1 equal f_avp[1]
variable pyy1 equal f_avp[2]
variable pzz1 equal f_avp[3]
variable pxy1 equal f_avp[4]
variable pxz1 equal f_avp[5]
variable pyz1 equal f_avp[6]

# Compute elastic constant from pressure tensor

variable C1neg equal 0.300902709564299
variable C2neg equal 0.0633081132828986
variable C3neg equal 1.2750460284309
variable C4neg equal -0.659324416165579
variable C5neg equal -1.07915542697612
variable C6neg equal -0.95759721022686

# Reset box and simulation parameters

clear
box tilt large

The 'box' command has been removed and will be ignored

read_restart restart.equil
Reading restart file ...
  restart file = 7 Feb 2024, LAMMPS = 7 Feb 2024
  restoring atom style atomic from restart
  triclinic box = (0 0 0) to (6.9541015 6.3530143 28.422936) with tilt (2.6303553 0.54033995 1.3928068)
  pair style schnetpack stores no restart info
  104 atoms
  read_restart CPU = 0.000 seconds
include potential.mod
# NOTE: This script can be modified for different pair styles
# See in.elastic for more info.

# we must undefine any fix ave/* fix before using reset_timestep
if "$(is_defined(fix,avp))" then "unfix avp"
reset_timestep 0

newton off

# Choose potential
# pair_style	sw
# pair_coeff * * Si.sw Si
pair_style	schnetpack
pair_coeff	* * deploy_model 20 14 8 1

atom_modify sort 0 0.0
#kspace_style	ewald 1.0e-6# Setup neighbor style

neighbor 2.0 bin
neigh_modify once no every 1 delay 0 check yes

# Setup output

fix avp all ave/time  10 10 100 c_thermo_press mode vector

min_style cg
minimize 1.0e-15 1.0e-15 100000 100000 #设置能量最小化
Step          Temp          E_pair         E_mol          TotEng         Press
0   300.71087     -1351.0056      0             -1347.002       3405.4954
Loop time of 11.9172 on 1 procs for 25 steps with 104 atoms

Minimization stats:
  Stopping criterion = linesearch alpha is zero
  Energy initial, next-to-last, final =
  Force two-norm initial, final = 162.2668 312.19469
  Force max component initial, final = 48.431358 120.19473
  Final line search alpha, max atom move = 9.6856331e-14 1.164162e-11
  Iterations, force evaluations = 25 483

thermo		100
thermo_style custom step temp pe press f_avp[1] f_avp[2] f_avp[3] f_avp[4] f_avp[5] f_avp[6]
thermo_modify norm no

# Setup MD

timestep 1e-05
fix 4 all nve
fix 5 all langevin 300 300 0.0001 123457

# Positive deformation

variable delta equal 0.02*6.95410149254538
variable deltaxy equal 0.02*xy
variable deltaxz equal 0.02*xz
variable deltayz equal 0.02*yz
change_box all x delta 0 0.139082029850908 xy delta 0.0526071050219228 xz delta 0.0108067990505754 remap units box
Changing box ...
  triclinic box = (0 0 0) to (7.0931835 6.3530143 28.422936) with tilt (2.6303553 0.54033995 1.3928068)
  triclinic box = (0 0 0) to (7.0931835 6.3530143 28.422936) with tilt (2.6829624 0.54033995 1.3928068)
  triclinic box = (0 0 0) to (7.0931835 6.3530143 28.422936) with tilt (2.6829624 0.55114675 1.3928068)

# Run MD

run 1000
Step          Temp          PotEng         Press         f_avp[1]       f_avp[2]       f_avp[3]       f_avp[4]       f_avp[5]       f_avp[6]
25   300.71087     -1381.2616      3338.721       0              0              0              0              0              0
Averages over the last 6 of 12 rows, steps 600 to 1025:
Temp PotEng Press f_avp[1] f_avp[2] f_avp[3] f_avp[4] f_avp[5] f_avp[6]
316.7 -1425.8 3516.24 3483.96 3422.65 3462.4 -16.4978 136.76 -24.4357
Loop time of 23.4004 on 1 procs for 1000 steps with 104 atoms

include potential.mod
# NOTE: This script can be modified for different pair styles
# See in.elastic for more info.

# we must undefine any fix ave/* fix before using reset_timestep
if "$(is_defined(fix,avp))" then "unfix avp"
unfix avp
reset_timestep 0

newton off

# Choose potential
# pair_style	sw
# pair_coeff * * Si.sw Si
pair_style	schnetpack
pair_coeff	* * deploy_model 20 14 8 1

atom_modify sort 0 0.0
#kspace_style	ewald 1.0e-6# Setup neighbor style

neighbor 2.0 bin
neigh_modify once no every 1 delay 0 check yes

# Setup output

fix avp all ave/time  10 10 100 c_thermo_press mode vector

min_style cg
minimize 1.0e-15 1.0e-15 100000 100000 #设置能量最小化
Step          Temp          PotEng         Press         f_avp[1]       f_avp[2]       f_avp[3]       f_avp[4]       f_avp[5]       f_avp[6]
0   356.01072     -1430.8425      3952.7021      0              0              0              0              0              0
Loop time of 13.7178 on 1 procs for 19 steps with 104 atoms

Minimization stats:
  Stopping criterion = linesearch alpha is zero
  Energy initial, next-to-last, final =
  Force two-norm initial, final = 674.43204 118.82125
  Force max component initial, final = 407.06158 48.937275
  Final line search alpha, max atom move = 4.7576053e-13 2.3282424e-11
  Iterations, force evaluations = 19 456

thermo		100
thermo_style custom step temp pe press f_avp[1] f_avp[2] f_avp[3] f_avp[4] f_avp[5] f_avp[6]
thermo_modify norm no

# Setup MD

timestep 1e-05
fix 4 all nve
fix 5 all langevin 300 300 0.0001 123457

run 300
Step          Temp          PotEng         Press         f_avp[1]       f_avp[2]       f_avp[3]       f_avp[4]       f_avp[5]       f_avp[6]
19   356.01072     -1424.9302      3952.7021      0              0              0              0              0              0
Loop time of 6.97931 on 1 procs for 300 steps with 104 atoms

# Obtain new stress tensor

variable pxx1 equal f_avp[1]
variable pyy1 equal f_avp[2]
variable pzz1 equal f_avp[3]
variable pxy1 equal f_avp[4]
variable pxz1 equal f_avp[5]
variable pyz1 equal f_avp[6]

# Compute elastic constant from pressure tensor

variable C1pos equal 0.310418333455849
variable C2pos equal 1.4890505508552
variable C3pos equal 0.652628354547399
variable C4pos equal 1.16454053212714
variable C5pos equal 1.01957330857199
variable C6pos equal 0.161982471119645

# Combine positive and negative

variable C11 equal 0.5*(0.300902709564299+0.310418333455849)
variable C21 equal 0.5*(0.0633081132828986+1.4890505508552)
variable C31 equal 0.5*(1.2750460284309+0.652628354547399)
variable C41 equal 0.5*(-0.659324416165579+1.16454053212714)
variable C51 equal 0.5*(-1.07915542697612+1.01957330857199)
variable C61 equal 0.5*(-0.95759721022686+0.161982471119645)

# Delete dir to make sure it is not reused

variable dir delete

# uyy Perturbation

variable dir equal 2
include displace.mod
# NOTE: This script should not need to be
# modified. See in.elastic for more info.
#
# Find which reference length to use

variable len0 equal 6.35301429848309

# Reset box and simulation parameters

clear
box tilt large

The 'box' command has been removed and will be ignored

read_restart restart.equil
Reading restart file ...
  restart file = 7 Feb 2024, LAMMPS = 7 Feb 2024
  restoring atom style atomic from restart
  triclinic box = (0 0 0) to (6.9541015 6.3530143 28.422936) with tilt (2.6303553 0.54033995 1.3928068)
  pair style schnetpack stores no restart info
  104 atoms
  read_restart CPU = 0.000 seconds
include potential.mod
# NOTE: This script can be modified for different pair styles
# See in.elastic for more info.

# we must undefine any fix ave/* fix before using reset_timestep
if "$(is_defined(fix,avp))" then "unfix avp"
reset_timestep 0

newton off

# Choose potential
# pair_style	sw
# pair_coeff * * Si.sw Si
pair_style	schnetpack
pair_coeff	* * deploy_model 20 14 8 1

atom_modify sort 0 0.0
#kspace_style	ewald 1.0e-6# Setup neighbor style

neighbor 2.0 bin
neigh_modify once no every 1 delay 0 check yes

# Setup output

fix avp all ave/time  10 10 100 c_thermo_press mode vector

min_style cg
minimize 1.0e-15 1.0e-15 100000 100000 #设置能量最小化
Step          Temp          E_pair         E_mol          TotEng         Press
0   300.71087     -1351.0057      0             -1347.0021      3405.4954
Loop time of 10.4337 on 1 procs for 22 steps with 104 atoms

Minimization stats:
  Stopping criterion = linesearch alpha is zero
  Energy initial, next-to-last, final =
  Force two-norm initial, final = 162.2668 113.41727
  Force max component initial, final = 48.431232 32.650932
  Final line search alpha, max atom move = 7.1308692e-13 2.3282953e-11
  Iterations, force evaluations = 22 416

thermo		100
thermo_style custom step temp pe press f_avp[1] f_avp[2] f_avp[3] f_avp[4] f_avp[5] f_avp[6]
thermo_modify norm no

# Setup MD

timestep 1e-05
fix 4 all nve
fix 5 all langevin 300 300 0.0001 123457

# Negative deformation

variable delta equal -0.02*6.35301429848309
variable deltaxy equal -0.02*xy
variable deltaxz equal -0.02*xz
variable deltayz equal -0.02*yz
change_box all y delta 0 -0.127060285969662 yz delta -0.0278561361757582 remap units box
Changing box ...
  triclinic box = (0 0 0) to (6.9541015 6.225954 28.422936) with tilt (2.6303553 0.54033995 1.3928068)
  triclinic box = (0 0 0) to (6.9541015 6.225954 28.422936) with tilt (2.6303553 0.54033995 1.3649507)

# Run MD

run 1000
Step          Temp          PotEng         Press         f_avp[1]       f_avp[2]       f_avp[3]       f_avp[4]       f_avp[5]       f_avp[6]
22   300.71087     -1413.583       3474.9953      0              0              0              0              0              0
Averages over the last 6 of 12 rows, steps 600 to 1022:
Temp PotEng Press f_avp[1] f_avp[2] f_avp[3] f_avp[4] f_avp[5] f_avp[6]
314.002 -1426.41 3628.59 3631.01 3493.41 3515.53 36.7433 137.269 21.6862
Loop time of 23.5376 on 1 procs for 1000 steps with 104 atoms

include potential.mod
# NOTE: This script can be modified for different pair styles
# See in.elastic for more info.

# we must undefine any fix ave/* fix before using reset_timestep
if "$(is_defined(fix,avp))" then "unfix avp"
unfix avp
reset_timestep 0

newton off

# Choose potential
# pair_style	sw
# pair_coeff * * Si.sw Si
pair_style	schnetpack
pair_coeff	* * deploy_model 20 14 8 1

atom_modify sort 0 0.0
#kspace_style	ewald 1.0e-6# Setup neighbor style

neighbor 2.0 bin
neigh_modify once no every 1 delay 0 check yes

# Setup output

fix avp all ave/time  10 10 100 c_thermo_press mode vector

min_style cg
minimize 1.0e-15 1.0e-15 100000 100000 #设置能量最小化
Step          Temp          PotEng         Press         f_avp[1]       f_avp[2]       f_avp[3]       f_avp[4]       f_avp[5]       f_avp[6]
0   344.899       -1428.4985      3985.6304      0              0              0              0              0              0
Loop time of 16.6407 on 1 procs for 32 steps with 104 atoms

Minimization stats:
  Stopping criterion = linesearch alpha is zero
  Energy initial, next-to-last, final =
  Force two-norm initial, final = 122.52198 145.29855
  Force max component initial, final = 36.436287 53.442162
  Final line search alpha, max atom move = 4.3566685e-13 2.3282978e-11
  Iterations, force evaluations = 32 582

thermo		100
thermo_style custom step temp pe press f_avp[1] f_avp[2] f_avp[3] f_avp[4] f_avp[5] f_avp[6]
thermo_modify norm no

# Setup MD

timestep 1e-05
fix 4 all nve
fix 5 all langevin 300 300 0.0001 123457

run 300
Step          Temp          PotEng         Press         f_avp[1]       f_avp[2]       f_avp[3]       f_avp[4]       f_avp[5]       f_avp[6]
32   344.899       -1486.0403      3985.6304      0              0              0              0              0              0
Loop time of 7.02101 on 1 procs for 300 steps with 104 atoms

# Obtain new stress tensor

variable pxx1 equal f_avp[1]
variable pyy1 equal f_avp[2]
variable pzz1 equal f_avp[3]
variable pxy1 equal f_avp[4]
variable pxz1 equal f_avp[5]
variable pyz1 equal f_avp[6]

# Compute elastic constant from pressure tensor

variable C1neg equal -0.3561219873102
variable C2neg equal -1.5133857976271
variable C3neg equal -0.55917634821605
variable C4neg equal -1.2086555266424
variable C5neg equal -1.38580215411712
variable C6neg equal -0.496479817231895

# Reset box and simulation parameters

clear
box tilt large

The 'box' command has been removed and will be ignored

read_restart restart.equil
Reading restart file ...
  restart file = 7 Feb 2024, LAMMPS = 7 Feb 2024
  restoring atom style atomic from restart
  triclinic box = (0 0 0) to (6.9541015 6.3530143 28.422936) with tilt (2.6303553 0.54033995 1.3928068)
  pair style schnetpack stores no restart info
  104 atoms
  read_restart CPU = 0.000 seconds
include potential.mod
# NOTE: This script can be modified for different pair styles
# See in.elastic for more info.

# we must undefine any fix ave/* fix before using reset_timestep
if "$(is_defined(fix,avp))" then "unfix avp"
reset_timestep 0

newton off

# Choose potential
# pair_style	sw
# pair_coeff * * Si.sw Si
pair_style	schnetpack
pair_coeff	* * deploy_model 20 14 8 1

atom_modify sort 0 0.0
#kspace_style	ewald 1.0e-6# Setup neighbor style

neighbor 2.0 bin
neigh_modify once no every 1 delay 0 check yes

# Setup output

fix avp all ave/time  10 10 100 c_thermo_press mode vector

min_style cg
minimize 1.0e-15 1.0e-15 100000 100000 #设置能量最小化
Step          Temp          E_pair         E_mol          TotEng         Press
0   300.71087     -1351.0056      0             -1347.002       3405.4954
Loop time of 15.3406 on 1 procs for 31 steps with 104 atoms

Minimization stats:
  Stopping criterion = linesearch alpha is zero
  Energy initial, next-to-last, final =
  Force two-norm initial, final = 162.26638 92.812127
  Force max component initial, final = 48.431118 31.589821
  Final line search alpha, max atom move = 7.3704392e-13 2.3283085e-11
  Iterations, force evaluations = 31 631

thermo		100
thermo_style custom step temp pe press f_avp[1] f_avp[2] f_avp[3] f_avp[4] f_avp[5] f_avp[6]
thermo_modify norm no

# Setup MD

timestep 1e-05
fix 4 all nve
fix 5 all langevin 300 300 0.0001 123457

# Positive deformation

variable delta equal 0.02*6.35301429848309
variable deltaxy equal 0.02*xy
variable deltaxz equal 0.02*xz
variable deltayz equal 0.02*yz
change_box all y delta 0 0.127060285969662 yz delta 0.0278561361757582 remap units box
Changing box ...
  triclinic box = (0 0 0) to (6.9541015 6.4800746 28.422936) with tilt (2.6303553 0.54033995 1.3928068)
  triclinic box = (0 0 0) to (6.9541015 6.4800746 28.422936) with tilt (2.6303553 0.54033995 1.4206629)

# Run MD

run 1000
Step          Temp          PotEng         Press         f_avp[1]       f_avp[2]       f_avp[3]       f_avp[4]       f_avp[5]       f_avp[6]
31   300.71087     -1397.0732      3338.721       0              0              0              0              0              0
Averages over the last 6 of 12 rows, steps 600 to 1031:
Temp PotEng Press f_avp[1] f_avp[2] f_avp[3] f_avp[4] f_avp[5] f_avp[6]
327.901 -1399.89 3640.61 3488.91 3390.88 3343.19 19.5914 135.735 -6.49473
Loop time of 23.3913 on 1 procs for 1000 steps with 104 atoms

include potential.mod
# NOTE: This script can be modified for different pair styles
# See in.elastic for more info.

# we must undefine any fix ave/* fix before using reset_timestep
if "$(is_defined(fix,avp))" then "unfix avp"
unfix avp
reset_timestep 0

newton off

# Choose potential
# pair_style	sw
# pair_coeff * * Si.sw Si
pair_style	schnetpack
pair_coeff	* * deploy_model 20 14 8 1

atom_modify sort 0 0.0
#kspace_style	ewald 1.0e-6# Setup neighbor style

neighbor 2.0 bin
neigh_modify once no every 1 delay 0 check yes

# Setup output

fix avp all ave/time  10 10 100 c_thermo_press mode vector

min_style cg
minimize 1.0e-15 1.0e-15 100000 100000 #设置能量最小化
Step          Temp          PotEng         Press         f_avp[1]       f_avp[2]       f_avp[3]       f_avp[4]       f_avp[5]       f_avp[6]
0   345.89982     -1401.156       3840.4431      0              0              0              0              0              0
Loop time of 15.3495 on 1 procs for 27 steps with 104 atoms

Minimization stats:
  Stopping criterion = linesearch alpha is zero
  Energy initial, next-to-last, final =
  Force two-norm initial, final = 102.08616 92.002212
  Force max component initial, final = 29.032551 32.545418
  Final line search alpha, max atom move = 1.4308042e-12 4.6566121e-11
  Iterations, force evaluations = 27 523

thermo		100
thermo_style custom step temp pe press f_avp[1] f_avp[2] f_avp[3] f_avp[4] f_avp[5] f_avp[6]
thermo_modify norm no

# Setup MD

timestep 1e-05
fix 4 all nve
fix 5 all langevin 300 300 0.0001 123457

run 300
Step          Temp          PotEng         Press         f_avp[1]       f_avp[2]       f_avp[3]       f_avp[4]       f_avp[5]       f_avp[6]
27   345.89982     -1437.8215      3840.4431      0              0              0              0              0              0
Loop time of 6.92903 on 1 procs for 300 steps with 104 atoms

# Obtain new stress tensor

variable pxx1 equal f_avp[1]
variable pyy1 equal f_avp[2]
variable pzz1 equal f_avp[3]
variable pxy1 equal f_avp[4]
variable pxz1 equal f_avp[5]
variable pyz1 equal f_avp[6]

# Compute elastic constant from pressure tensor

variable C1pos equal 1.4525233085081
variable C2pos equal 1.79885428670245
variable C3pos equal 0.0428603816365011
variable C4pos equal 0.454765909714439
variable C5pos equal 1.26897017773288
variable C6pos equal 0.568912948640915

# Combine positive and negative

variable C12 equal 0.5*(-0.3561219873102+1.4525233085081)
variable C22 equal 0.5*(-1.5133857976271+1.79885428670245)
variable C32 equal 0.5*(-0.55917634821605+0.0428603816365011)
variable C42 equal 0.5*(-1.2086555266424+0.454765909714439)
variable C52 equal 0.5*(-1.38580215411712+1.26897017773288)
variable C62 equal 0.5*(-0.496479817231895+0.568912948640915)

# Delete dir to make sure it is not reused

variable dir delete

# uzz Perturbation

variable dir equal 3
include displace.mod
# NOTE: This script should not need to be
# modified. See in.elastic for more info.
#
# Find which reference length to use

variable len0 equal 28.4229356586947

# Reset box and simulation parameters

clear
box tilt large

The 'box' command has been removed and will be ignored

read_restart restart.equil
Reading restart file ...
  restart file = 7 Feb 2024, LAMMPS = 7 Feb 2024
  restoring atom style atomic from restart
  triclinic box = (0 0 0) to (6.9541015 6.3530143 28.422936) with tilt (2.6303553 0.54033995 1.3928068)
  pair style schnetpack stores no restart info
  104 atoms
  read_restart CPU = 0.000 seconds
include potential.mod
# NOTE: This script can be modified for different pair styles
# See in.elastic for more info.

# we must undefine any fix ave/* fix before using reset_timestep
if "$(is_defined(fix,avp))" then "unfix avp"
reset_timestep 0

newton off

# Choose potential
# pair_style	sw
# pair_coeff * * Si.sw Si
pair_style	schnetpack
pair_coeff	* * deploy_model 20 14 8 1

atom_modify sort 0 0.0
#kspace_style	ewald 1.0e-6# Setup neighbor style

neighbor 2.0 bin
neigh_modify once no every 1 delay 0 check yes

# Setup output

fix avp all ave/time  10 10 100 c_thermo_press mode vector

min_style cg
minimize 1.0e-15 1.0e-15 100000 100000 #设置能量最小化
Step          Temp          E_pair         E_mol          TotEng         Press
0   300.71087     -1351.0056      0             -1347.002       3405.4954
Loop time of 13.085 on 1 procs for 25 steps with 104 atoms

Minimization stats:
  Stopping criterion = linesearch alpha is zero
  Energy initial, next-to-last, final =
  Force two-norm initial, final = 162.26688 105.96081
  Force max component initial, final = 48.431091 31.08197
  Final line search alpha, max atom move = 7.4908411e-13 2.328301e-11
  Iterations, force evaluations = 25 535

thermo		100
thermo_style custom step temp pe press f_avp[1] f_avp[2] f_avp[3] f_avp[4] f_avp[5] f_avp[6]
thermo_modify norm no

# Setup MD

timestep 1e-05
fix 4 all nve
fix 5 all langevin 300 300 0.0001 123457

# Negative deformation

variable delta equal -0.02*28.4229356586947
variable deltaxy equal -0.02*xy
variable deltaxz equal -0.02*xz
variable deltayz equal -0.02*yz
change_box all z delta 0 -0.568458713173894 remap units box
Changing box ...
  triclinic box = (0 0 0) to (6.9541015 6.3530143 27.854477) with tilt (2.6303553 0.54033995 1.3928068)

# Run MD

run 1000
Step          Temp          PotEng         Press         f_avp[1]       f_avp[2]       f_avp[3]       f_avp[4]       f_avp[5]       f_avp[6]
25   300.71087     -1423.4624      3474.9953      0              0              0              0              0              0
Averages over the last 6 of 12 rows, steps 600 to 1025:
Temp PotEng Press f_avp[1] f_avp[2] f_avp[3] f_avp[4] f_avp[5] f_avp[6]
310.52 -1434.04 3588.35 3605.32 3483.65 3582.7 21.5886 152.941 -3.49307
Loop time of 23.6081 on 1 procs for 1000 steps with 104 atoms

include potential.mod
# NOTE: This script can be modified for different pair styles
# See in.elastic for more info.

# we must undefine any fix ave/* fix before using reset_timestep
if "$(is_defined(fix,avp))" then "unfix avp"
unfix avp
reset_timestep 0

newton off

# Choose potential
# pair_style	sw
# pair_coeff * * Si.sw Si
pair_style	schnetpack
pair_coeff	* * deploy_model 20 14 8 1

atom_modify sort 0 0.0
#kspace_style	ewald 1.0e-6# Setup neighbor style

neighbor 2.0 bin
neigh_modify once no every 1 delay 0 check yes

# Setup output

fix avp all ave/time  10 10 100 c_thermo_press mode vector

min_style cg
minimize 1.0e-15 1.0e-15 100000 100000 #设置能量最小化
Step          Temp          PotEng         Press         f_avp[1]       f_avp[2]       f_avp[3]       f_avp[4]       f_avp[5]       f_avp[6]
0   344.7215      -1436.3374      3983.5793      0              0              0              0              0              0
Loop time of 22.7372 on 1 procs for 24 steps with 104 atoms

Minimization stats:
  Stopping criterion = linesearch alpha is zero
  Energy initial, next-to-last, final =
  Force two-norm initial, final = 121.04456 242.33276
  Force max component initial, final = 31.608032 106.4345
  Final line search alpha, max atom move = 1.093781e-13 1.1641604e-11
  Iterations, force evaluations = 24 838

thermo		100
thermo_style custom step temp pe press f_avp[1] f_avp[2] f_avp[3] f_avp[4] f_avp[5] f_avp[6]
thermo_modify norm no

# Setup MD

timestep 1e-05
fix 4 all nve
fix 5 all langevin 300 300 0.0001 123457

run 300
Step          Temp          PotEng         Press         f_avp[1]       f_avp[2]       f_avp[3]       f_avp[4]       f_avp[5]       f_avp[6]
24   344.7215      -1464.5908      3983.5793      0              0              0              0              0              0
Loop time of 7.06359 on 1 procs for 300 steps with 104 atoms

# Obtain new stress tensor

variable pxx1 equal f_avp[1]
variable pyy1 equal f_avp[2]
variable pzz1 equal f_avp[3]
variable pxy1 equal f_avp[4]
variable pxz1 equal f_avp[5]
variable pyz1 equal f_avp[6]

# Compute elastic constant from pressure tensor

variable C1neg equal -0.0743627718450011
variable C2neg equal -0.2384751341231
variable C3neg equal 1.18020271180865
variable C4neg equal -0.938905473873027
variable C5neg equal -0.919876080753014
variable C6neg equal -0.74388900174634

# Reset box and simulation parameters

clear
box tilt large

The 'box' command has been removed and will be ignored

read_restart restart.equil
Reading restart file ...
  restart file = 7 Feb 2024, LAMMPS = 7 Feb 2024
  restoring atom style atomic from restart
  triclinic box = (0 0 0) to (6.9541015 6.3530143 28.422936) with tilt (2.6303553 0.54033995 1.3928068)
  pair style schnetpack stores no restart info
  104 atoms
  read_restart CPU = 0.000 seconds
include potential.mod
# NOTE: This script can be modified for different pair styles
# See in.elastic for more info.

# we must undefine any fix ave/* fix before using reset_timestep
if "$(is_defined(fix,avp))" then "unfix avp"
reset_timestep 0

newton off

# Choose potential
# pair_style	sw
# pair_coeff * * Si.sw Si
pair_style	schnetpack
pair_coeff	* * deploy_model 20 14 8 1

atom_modify sort 0 0.0
#kspace_style	ewald 1.0e-6# Setup neighbor style

neighbor 2.0 bin
neigh_modify once no every 1 delay 0 check yes

# Setup output

fix avp all ave/time  10 10 100 c_thermo_press mode vector

min_style cg
minimize 1.0e-15 1.0e-15 100000 100000 #设置能量最小化
Step          Temp          E_pair         E_mol          TotEng         Press
0   300.71087     -1351.0057      0             -1347.0021      3405.4954
Loop time of 4.34067 on 1 procs for 19 steps with 104 atoms

Minimization stats:
  Stopping criterion = linesearch alpha is zero
  Energy initial, next-to-last, final =
  Force two-norm initial, final = 162.26696 139.94753
  Force max component initial, final = 48.431 43.361534
  Final line search alpha, max atom move = 5.3694912e-13 2.3282937e-11
  Iterations, force evaluations = 19 161

thermo		100
thermo_style custom step temp pe press f_avp[1] f_avp[2] f_avp[3] f_avp[4] f_avp[5] f_avp[6]
thermo_modify norm no

# Setup MD

timestep 1e-05
fix 4 all nve
fix 5 all langevin 300 300 0.0001 123457

# Positive deformation

variable delta equal 0.02*28.4229356586947
variable deltaxy equal 0.02*xy
variable deltaxz equal 0.02*xz
variable deltayz equal 0.02*yz
change_box all z delta 0 0.568458713173894 remap units box
Changing box ...
  triclinic box = (0 0 0) to (6.9541015 6.3530143 28.991394) with tilt (2.6303553 0.54033995 1.3928068)

# Run MD

run 1000
Step          Temp          PotEng         Press         f_avp[1]       f_avp[2]       f_avp[3]       f_avp[4]       f_avp[5]       f_avp[6]
19   300.71087     -1397.2064      3338.721       0              0              0              0              0              0
Averages over the last 6 of 12 rows, steps 600 to 1019:
Temp PotEng Press f_avp[1] f_avp[2] f_avp[3] f_avp[4] f_avp[5] f_avp[6]
310.678 -1413.21 3449.39 3453.54 3552.72 3378.02 -24.0201 188.851 10.4585
Loop time of 23.4341 on 1 procs for 1000 steps with 104 atoms

include potential.mod
# NOTE: This script can be modified for different pair styles
# See in.elastic for more info.

# we must undefine any fix ave/* fix before using reset_timestep
if "$(is_defined(fix,avp))" then "unfix avp"
unfix avp
reset_timestep 0

newton off

# Choose potential
# pair_style	sw
# pair_coeff * * Si.sw Si
pair_style	schnetpack
pair_coeff	* * deploy_model 20 14 8 1

atom_modify sort 0 0.0
#kspace_style	ewald 1.0e-6# Setup neighbor style

neighbor 2.0 bin
neigh_modify once no every 1 delay 0 check yes

# Setup output

fix avp all ave/time  10 10 100 c_thermo_press mode vector

min_style cg
minimize 1.0e-15 1.0e-15 100000 100000 #设置能量最小化
Step          Temp          PotEng         Press         f_avp[1]       f_avp[2]       f_avp[3]       f_avp[4]       f_avp[5]       f_avp[6]
0   344.99227     -1411.1564      3830.3669      0              0              0              0              0              0
Loop time of 11.5306 on 1 procs for 13 steps with 104 atoms

Minimization stats:
  Stopping criterion = linesearch alpha is zero
  Energy initial, next-to-last, final =
  Force two-norm initial, final = 100.37442 126.44991
  Force max component initial, final = 28.678852 38.543594
  Final line search alpha, max atom move = 6.0407385e-13 2.3283177e-11
  Iterations, force evaluations = 13 469

thermo		100
thermo_style custom step temp pe press f_avp[1] f_avp[2] f_avp[3] f_avp[4] f_avp[5] f_avp[6]
thermo_modify norm no

# Setup MD

timestep 1e-05
fix 4 all nve
fix 5 all langevin 300 300 0.0001 123457

run 300
Step          Temp          PotEng         Press         f_avp[1]       f_avp[2]       f_avp[3]       f_avp[4]       f_avp[5]       f_avp[6]
13   344.99227     -1431.7852      3830.3669      0              0              0              0              0              0
Loop time of 7.08864 on 1 procs for 300 steps with 104 atoms

# Obtain new stress tensor

variable pxx1 equal f_avp[1]
variable pyy1 equal f_avp[2]
variable pzz1 equal f_avp[3]
variable pxy1 equal f_avp[4]
variable pxz1 equal f_avp[5]
variable pyz1 equal f_avp[6]

# Compute elastic constant from pressure tensor

variable C1pos equal 1.13789787249935
variable C2pos equal 0.69165907007575
variable C3pos equal 1.00306212425355
variable C4pos equal 1.3217123271263
variable C5pos equal 1.24996445517851
variable C6pos equal 0.866369323098298

# Combine positive and negative

variable C13 equal 0.5*(-0.0743627718450011+1.13789787249935)
variable C23 equal 0.5*(-0.2384751341231+0.69165907007575)
variable C33 equal 0.5*(1.18020271180865+1.00306212425355)
variable C43 equal 0.5*(-0.938905473873027+1.3217123271263)
variable C53 equal 0.5*(-0.919876080753014+1.24996445517851)
variable C63 equal 0.5*(-0.74388900174634+0.866369323098298)

# Delete dir to make sure it is not reused

variable dir delete

# uyz Perturbation

variable dir equal 4
include displace.mod
# NOTE: This script should not need to be
# modified. See in.elastic for more info.
#
# Find which reference length to use

variable len0 equal 28.4229356586947

# Reset box and simulation parameters

clear
box tilt large

The 'box' command has been removed and will be ignored

read_restart restart.equil
Reading restart file ...
  restart file = 7 Feb 2024, LAMMPS = 7 Feb 2024
  restoring atom style atomic from restart
  triclinic box = (0 0 0) to (6.9541015 6.3530143 28.422936) with tilt (2.6303553 0.54033995 1.3928068)
  pair style schnetpack stores no restart info
  104 atoms
  read_restart CPU = 0.000 seconds
include potential.mod
# NOTE: This script can be modified for different pair styles
# See in.elastic for more info.

# we must undefine any fix ave/* fix before using reset_timestep
if "$(is_defined(fix,avp))" then "unfix avp"
reset_timestep 0

newton off

# Choose potential
# pair_style	sw
# pair_coeff * * Si.sw Si
pair_style	schnetpack
pair_coeff	* * deploy_model 20 14 8 1

atom_modify sort 0 0.0
#kspace_style	ewald 1.0e-6# Setup neighbor style

neighbor 2.0 bin
neigh_modify once no every 1 delay 0 check yes

# Setup output

fix avp all ave/time  10 10 100 c_thermo_press mode vector

min_style cg
minimize 1.0e-15 1.0e-15 100000 100000 #设置能量最小化
Step          Temp          E_pair         E_mol          TotEng         Press
0   300.71087     -1351.0056      0             -1347.002       3405.4954
Loop time of 22.5778 on 1 procs for 41 steps with 104 atoms

Minimization stats:
  Stopping criterion = linesearch alpha is zero
  Energy initial, next-to-last, final =
  Force two-norm initial, final = 162.26652 241.84899
  Force max component initial, final = 48.431293 127.14474
  Final line search alpha, max atom move = 1.8312325e-13 2.3283159e-11
  Iterations, force evaluations = 41 935

thermo		100
thermo_style custom step temp pe press f_avp[1] f_avp[2] f_avp[3] f_avp[4] f_avp[5] f_avp[6]
thermo_modify norm no

# Setup MD

timestep 1e-05
fix 4 all nve
fix 5 all langevin 300 300 0.0001 123457

# Negative deformation

variable delta equal -0.02*28.4229356586947
variable deltaxy equal -0.02*xy
variable deltaxz equal -0.02*xz
variable deltayz equal -0.02*yz
change_box all yz delta -0.568458713173894 remap units box
Changing box ...
  triclinic box = (0 0 0) to (6.9541015 6.3530143 28.422936) with tilt (2.6303553 0.54033995 0.8243481)

# Run MD

run 1000
Step          Temp          PotEng         Press         f_avp[1]       f_avp[2]       f_avp[3]       f_avp[4]       f_avp[5]       f_avp[6]
41   300.71087     -1430.1523      3405.4954      0              0              0              0              0              0
Averages over the last 6 of 12 rows, steps 600 to 1041:
Temp PotEng Press f_avp[1] f_avp[2] f_avp[3] f_avp[4] f_avp[5] f_avp[6]
309.753 -1445.89 3507.9 3531.11 3442.39 3468.98 19.1861 142.557 -0.297738
Loop time of 23.3646 on 1 procs for 1000 steps with 104 atoms

include potential.mod
# NOTE: This script can be modified for different pair styles
# See in.elastic for more info.

# we must undefine any fix ave/* fix before using reset_timestep
if "$(is_defined(fix,avp))" then "unfix avp"
unfix avp
reset_timestep 0

newton off

# Choose potential
# pair_style	sw
# pair_coeff * * Si.sw Si
pair_style	schnetpack
pair_coeff	* * deploy_model 20 14 8 1

atom_modify sort 0 0.0
#kspace_style	ewald 1.0e-6# Setup neighbor style

neighbor 2.0 bin
neigh_modify once no every 1 delay 0 check yes

# Setup output

fix avp all ave/time  10 10 100 c_thermo_press mode vector

min_style cg
minimize 1.0e-15 1.0e-15 100000 100000 #设置能量最小化
Step          Temp          PotEng         Press         f_avp[1]       f_avp[2]       f_avp[3]       f_avp[4]       f_avp[5]       f_avp[6]
0   345.72244     -1448.0571      3915.2432      0              0              0              0              0              0
Loop time of 14.5235 on 1 procs for 24 steps with 104 atoms

Minimization stats:
  Stopping criterion = linesearch alpha is zero
  Energy initial, next-to-last, final =
  Force two-norm initial, final = 114.60866 142.96875
  Force max component initial, final = 31.60866 55.329685
  Final line search alpha, max atom move = 4.2080599e-13 2.3283063e-11
  Iterations, force evaluations = 24 485

thermo		100
thermo_style custom step temp pe press f_avp[1] f_avp[2] f_avp[3] f_avp[4] f_avp[5] f_avp[6]
thermo_modify norm no

# Setup MD

timestep 1e-05
fix 4 all nve
fix 5 all langevin 300 300 0.0001 123457

run 300
Step          Temp          PotEng         Press         f_avp[1]       f_avp[2]       f_avp[3]       f_avp[4]       f_avp[5]       f_avp[6]
24   345.72244     -1441.2673      3915.2432      0              0              0              0              0              0
Loop time of 7.07286 on 1 procs for 300 steps with 104 atoms

# Obtain new stress tensor

variable pxx1 equal f_avp[1]
variable pyy1 equal f_avp[2]
variable pzz1 equal f_avp[3]
variable pxy1 equal f_avp[4]
variable pxz1 equal f_avp[5]
variable pyz1 equal f_avp[6]

# Compute elastic constant from pressure tensor

variable C1neg equal -0.316513099323699
variable C2neg equal -0.376351313264102
variable C3neg equal 0.619602245475251
variable C4neg equal -0.88522829763776
variable C5neg equal -1.14431859035137
variable C6neg equal -1.03708974770579

# Reset box and simulation parameters

clear
box tilt large

The 'box' command has been removed and will be ignored

read_restart restart.equil
Reading restart file ...
  restart file = 7 Feb 2024, LAMMPS = 7 Feb 2024
  restoring atom style atomic from restart
  triclinic box = (0 0 0) to (6.9541015 6.3530143 28.422936) with tilt (2.6303553 0.54033995 1.3928068)
  pair style schnetpack stores no restart info
  104 atoms
  read_restart CPU = 0.000 seconds
include potential.mod
# NOTE: This script can be modified for different pair styles
# See in.elastic for more info.

# we must undefine any fix ave/* fix before using reset_timestep
if "$(is_defined(fix,avp))" then "unfix avp"
reset_timestep 0

newton off

# Choose potential
# pair_style	sw
# pair_coeff * * Si.sw Si
pair_style	schnetpack
pair_coeff	* * deploy_model 20 14 8 1

atom_modify sort 0 0.0
#kspace_style	ewald 1.0e-6# Setup neighbor style

neighbor 2.0 bin
neigh_modify once no every 1 delay 0 check yes

# Setup output

fix avp all ave/time  10 10 100 c_thermo_press mode vector

min_style cg
minimize 1.0e-15 1.0e-15 100000 100000 #设置能量最小化
Step          Temp          E_pair         E_mol          TotEng         Press
0   300.71087     -1351.0057      0             -1347.0021      3405.4954
Loop time of 14.1661 on 1 procs for 28 steps with 104 atoms

Minimization stats:
  Stopping criterion = linesearch alpha is zero
  Energy initial, next-to-last, final =
  Force two-norm initial, final = 162.26676 211.95918
  Force max component initial, final = 48.431267 76.059563
  Final line search alpha, max atom move = 1.5306286e-13 1.1641894e-11
  Iterations, force evaluations = 28 578

thermo		100
thermo_style custom step temp pe press f_avp[1] f_avp[2] f_avp[3] f_avp[4] f_avp[5] f_avp[6]
thermo_modify norm no

# Setup MD

timestep 1e-05
fix 4 all nve
fix 5 all langevin 300 300 0.0001 123457

# Positive deformation

variable delta equal 0.02*28.4229356586947
variable deltaxy equal 0.02*xy
variable deltaxz equal 0.02*xz
variable deltayz equal 0.02*yz
change_box all yz delta 0.568458713173894 remap units box
Changing box ...
  triclinic box = (0 0 0) to (6.9541015 6.3530143 28.422936) with tilt (2.6303553 0.54033995 1.9612655)

# Run MD

run 1000
Step          Temp          PotEng         Press         f_avp[1]       f_avp[2]       f_avp[3]       f_avp[4]       f_avp[5]       f_avp[6]
28   300.71087     -1440.5876      3405.4954      0              0              0              0              0              0
Averages over the last 6 of 12 rows, steps 600 to 1028:
Temp PotEng Press f_avp[1] f_avp[2] f_avp[3] f_avp[4] f_avp[5] f_avp[6]
322.625 -1458.81 3653.67 3519.31 3557.69 3458.28 -12.5553 177.679 4.72697
Loop time of 23.5089 on 1 procs for 1000 steps with 104 atoms

include potential.mod
# NOTE: This script can be modified for different pair styles
# See in.elastic for more info.

# we must undefine any fix ave/* fix before using reset_timestep
if "$(is_defined(fix,avp))" then "unfix avp"
unfix avp
reset_timestep 0

newton off

# Choose potential
# pair_style	sw
# pair_coeff * * Si.sw Si
pair_style	schnetpack
pair_coeff	* * deploy_model 20 14 8 1

atom_modify sort 0 0.0
#kspace_style	ewald 1.0e-6# Setup neighbor style

neighbor 2.0 bin
neigh_modify once no every 1 delay 0 check yes

# Setup output

fix avp all ave/time  10 10 100 c_thermo_press mode vector

min_style cg
minimize 1.0e-15 1.0e-15 100000 100000 #设置能量最小化
Step          Temp          PotEng         Press         f_avp[1]       f_avp[2]       f_avp[3]       f_avp[4]       f_avp[5]       f_avp[6]
0   351.97434     -1421.5312      3986.0448      0              0              0              0              0              0
Loop time of 10.2212 on 1 procs for 20 steps with 104 atoms

Minimization stats:
  Stopping criterion = linesearch alpha is zero
  Energy initial, next-to-last, final =
  Force two-norm initial, final = 651.34078 113.26485
  Force max component initial, final = 277.79681 41.135674
  Final line search alpha, max atom move = 5.6600155e-13 2.3282855e-11
  Iterations, force evaluations = 20 305

thermo		100
thermo_style custom step temp pe press f_avp[1] f_avp[2] f_avp[3] f_avp[4] f_avp[5] f_avp[6]
thermo_modify norm no

# Setup MD

timestep 1e-05
fix 4 all nve
fix 5 all langevin 300 300 0.0001 123457

run 300
Step          Temp          PotEng         Press         f_avp[1]       f_avp[2]       f_avp[3]       f_avp[4]       f_avp[5]       f_avp[6]
20   351.97434     -1458.5033      3986.0448      0              0              0              0              0              0
Loop time of 7.04482 on 1 procs for 300 steps with 104 atoms

# Obtain new stress tensor

variable pxx1 equal f_avp[1]
variable pyy1 equal f_avp[2]
variable pzz1 equal f_avp[3]
variable pxy1 equal f_avp[4]
variable pxz1 equal f_avp[5]
variable pyz1 equal f_avp[6]

# Compute elastic constant from pressure tensor

variable C1pos equal 0.0381509926498507
variable C2pos equal 1.2848848801738
variable C3pos equal 0.332390949025651
variable C4pos equal 1.29542837958738
variable C5pos equal 0.777504509772754
variable C6pos equal 0.10237946803952

# Combine positive and negative

variable C14 equal 0.5*(-0.316513099323699+0.0381509926498507)
variable C24 equal 0.5*(-0.376351313264102+1.2848848801738)
variable C34 equal 0.5*(0.619602245475251+0.332390949025651)
variable C44 equal 0.5*(-0.88522829763776+1.29542837958738)
variable C54 equal 0.5*(-1.14431859035137+0.777504509772754)
variable C64 equal 0.5*(-1.03708974770579+0.10237946803952)

# Delete dir to make sure it is not reused

variable dir delete

# uxz Perturbation

variable dir equal 5
include displace.mod
# NOTE: This script should not need to be
# modified. See in.elastic for more info.
#
# Find which reference length to use

variable len0 equal 28.4229356586947

# Reset box and simulation parameters

clear
box tilt large

The 'box' command has been removed and will be ignored

read_restart restart.equil
Reading restart file ...
  restart file = 7 Feb 2024, LAMMPS = 7 Feb 2024
  restoring atom style atomic from restart
  triclinic box = (0 0 0) to (6.9541015 6.3530143 28.422936) with tilt (2.6303553 0.54033995 1.3928068)
  pair style schnetpack stores no restart info
  104 atoms
  read_restart CPU = 0.000 seconds
include potential.mod
# NOTE: This script can be modified for different pair styles
# See in.elastic for more info.

# we must undefine any fix ave/* fix before using reset_timestep
if "$(is_defined(fix,avp))" then "unfix avp"
reset_timestep 0

newton off

# Choose potential
# pair_style	sw
# pair_coeff * * Si.sw Si
pair_style	schnetpack
pair_coeff	* * deploy_model 20 14 8 1

atom_modify sort 0 0.0
#kspace_style	ewald 1.0e-6# Setup neighbor style

neighbor 2.0 bin
neigh_modify once no every 1 delay 0 check yes

# Setup output

fix avp all ave/time  10 10 100 c_thermo_press mode vector

min_style cg
minimize 1.0e-15 1.0e-15 100000 100000 #设置能量最小化
Step          Temp          E_pair         E_mol          TotEng         Press
0   300.71087     -1351.0057      0             -1347.0021      3405.4954
Loop time of 10.3853 on 1 procs for 31 steps with 104 atoms

Minimization stats:
  Stopping criterion = linesearch alpha is zero
  Energy initial, next-to-last, final =
  Force two-norm initial, final = 162.26663 190.16808
  Force max component initial, final = 48.431351 92.930557
  Final line search alpha, max atom move = 2.5054372e-13 2.3283168e-11
  Iterations, force evaluations = 31 418

thermo		100
thermo_style custom step temp pe press f_avp[1] f_avp[2] f_avp[3] f_avp[4] f_avp[5] f_avp[6]
thermo_modify norm no

# Setup MD

timestep 1e-05
fix 4 all nve
fix 5 all langevin 300 300 0.0001 123457

# Negative deformation

variable delta equal -0.02*28.4229356586947
variable deltaxy equal -0.02*xy
variable deltaxz equal -0.02*xz
variable deltayz equal -0.02*yz
change_box all xz delta -0.568458713173894 remap units box
Changing box ...
  triclinic box = (0 0 0) to (6.9541015 6.3530143 28.422936) with tilt (2.6303553 -0.028118761 1.3928068)

# Run MD

run 1000
Step          Temp          PotEng         Press         f_avp[1]       f_avp[2]       f_avp[3]       f_avp[4]       f_avp[5]       f_avp[6]
31   300.71087     -1446.8374      3405.4954      0              0              0              0              0              0
Averages over the last 6 of 12 rows, steps 600 to 1031:
Temp PotEng Press f_avp[1] f_avp[2] f_avp[3] f_avp[4] f_avp[5] f_avp[6]
332.619 -1454.63 3766.85 3587.64 3482.35 3446.29 9.95157 154.456 -13.279
Loop time of 23.4241 on 1 procs for 1000 steps with 104 atoms

include potential.mod
# NOTE: This script can be modified for different pair styles
# See in.elastic for more info.

# we must undefine any fix ave/* fix before using reset_timestep
if "$(is_defined(fix,avp))" then "unfix avp"
unfix avp
reset_timestep 0

newton off

# Choose potential
# pair_style	sw
# pair_coeff * * Si.sw Si
pair_style	schnetpack
pair_coeff	* * deploy_model 20 14 8 1

atom_modify sort 0 0.0
#kspace_style	ewald 1.0e-6# Setup neighbor style

neighbor 2.0 bin
neigh_modify once no every 1 delay 0 check yes

# Setup output

fix avp all ave/time  10 10 100 c_thermo_press mode vector

min_style cg
minimize 1.0e-15 1.0e-15 100000 100000 #设置能量最小化
Loop time of 9.36568 on 1 procs for 13 steps with 104 atoms

Minimization stats:
  Stopping criterion = linesearch alpha is zero
  Energy initial, next-to-last, final =
  Force two-norm initial, final = 225.77949 82.44121
  Force max component initial, final = 91.677368 25.653568
  Final line search alpha, max atom move = 1.8151916e-12 4.6566143e-11
  Iterations, force evaluations = 13 269

thermo		100
thermo_style custom step temp pe press f_avp[1] f_avp[2] f_avp[3] f_avp[4] f_avp[5] f_avp[6]
thermo_modify norm no

# Setup MD

timestep 1e-05
fix 4 all nve
fix 5 all langevin 300 300 0.0001 123457

run 300
Loop time of 7.01749 on 1 procs for 300 steps with 104 atoms

# Obtain new stress tensor

variable pxx1 equal f_avp[1]
variable pyy1 equal f_avp[2]
variable pzz1 equal f_avp[3]
variable pxy1 equal f_avp[4]
variable pxz1 equal f_avp[5]
variable pyz1 equal f_avp[6]

# Compute elastic constant from pressure tensor

variable C1neg equal -0.8571968637026
variable C2neg equal -0.2473429040252
variable C3neg equal -0.541810064477202
variable C4neg equal -1.41189530924508
variable C5neg equal -1.3524120576928
variable C6neg equal -0.854634225777141

# Reset box and simulation parameters

clear
box tilt large

The 'box' command has been removed and will be ignored

read_restart restart.equil
Reading restart file ...
  restart file = 7 Feb 2024, LAMMPS = 7 Feb 2024
  restoring atom style atomic from restart
  triclinic box = (0 0 0) to (6.9541015 6.3530143 28.422936) with tilt (2.6303553 0.54033995 1.3928068)
  pair style schnetpack stores no restart info
  104 atoms
  read_restart CPU = 0.000 seconds
include potential.mod
# NOTE: This script can be modified for different pair styles
# See in.elastic for more info.

# we must undefine any fix ave/* fix before using reset_timestep
if "$(is_defined(fix,avp))" then "unfix avp"
reset_timestep 0

newton off

# Choose potential
# pair_style	sw
# pair_coeff * * Si.sw Si
pair_style	schnetpack
pair_coeff	* * deploy_model 20 14 8 1

atom_modify sort 0 0.0
#kspace_style	ewald 1.0e-6# Setup neighbor style

neighbor 2.0 bin
neigh_modify once no every 1 delay 0 check yes

# Setup output

fix avp all ave/time  10 10 100 c_thermo_press mode vector

min_style cg
minimize 1.0e-15 1.0e-15 100000 100000 #设置能量最小化
Loop time of 12.3177 on 1 procs for 33 steps with 104 atoms

Minimization stats:
  Stopping criterion = linesearch alpha is zero
  Energy initial, next-to-last, final =
  Force two-norm initial, final = 162.26677 99.044956
  Force max component initial, final = 48.431133 34.908588
  Final line search alpha, max atom move = 6.6697238e-13 2.3283064e-11
  Iterations, force evaluations = 33 500

thermo		100
thermo_style custom step temp pe press f_avp[1] f_avp[2] f_avp[3] f_avp[4] f_avp[5] f_avp[6]
thermo_modify norm no

# Setup MD

timestep 1e-05
fix 4 all nve
fix 5 all langevin 300 300 0.0001 123457

# Positive deformation

variable delta equal 0.02*28.4229356586947
variable deltaxy equal 0.02*xy
variable deltaxz equal 0.02*xz
variable deltayz equal 0.02*yz
change_box all xz delta 0.568458713173894 remap units box
Changing box ...
  triclinic box = (0 0 0) to (6.9541015 6.3530143 28.422936) with tilt (2.6303553 1.1087987 1.3928068)

# Run MD

run 1000
Loop time of 23.4896 on 1 procs for 1000 steps with 104 atoms

include potential.mod
# NOTE: This script can be modified for different pair styles
# See in.elastic for more info.

# we must undefine any fix ave/* fix before using reset_timestep
if "$(is_defined(fix,avp))" then "unfix avp"
unfix avp
reset_timestep 0

newton off

# Choose potential
# pair_style	sw
# pair_coeff * * Si.sw Si
pair_style	schnetpack
pair_coeff	* * deploy_model 20 14 8 1

atom_modify sort 0 0.0
#kspace_style	ewald 1.0e-6# Setup neighbor style

neighbor 2.0 bin
neigh_modify once no every 1 delay 0 check yes

# Setup output

fix avp all ave/time  10 10 100 c_thermo_press mode vector

min_style cg
minimize 1.0e-15 1.0e-15 100000 100000 #设置能量最小化
Loop time of 13.2504 on 1 procs for 15 steps with 104 atoms

Minimization stats:
  Stopping criterion = linesearch alpha is zero
  Energy initial, next-to-last, final =
  Force two-norm initial, final = 649.45376 110.2831
  Force max component initial, final = 406.28555 28.254894
  Final line search alpha, max atom move = 8.2404346e-13 2.3283261e-11
  Iterations, force evaluations = 15 540

thermo		100
thermo_style custom step temp pe press f_avp[1] f_avp[2] f_avp[3] f_avp[4] f_avp[5] f_avp[6]
thermo_modify norm no

# Setup MD

timestep 1e-05
fix 4 all nve
fix 5 all langevin 300 300 0.0001 123457

run 300
Loop time of 7.02669 on 1 procs for 300 steps with 104 atoms

# Obtain new stress tensor

variable pxx1 equal f_avp[1]
variable pyy1 equal f_avp[2]
variable pzz1 equal f_avp[3]
variable pxy1 equal f_avp[4]
variable pxz1 equal f_avp[5]
variable pyz1 equal f_avp[6]

# Compute elastic constant from pressure tensor

variable C1pos equal 0.5382420844527
variable C2pos equal 0.245509286609702
variable C3pos equal -0.2027668290473
variable C4pos equal 0.871799929389003
variable C5pos equal 1.44376051305521
variable C6pos equal 0.931832774952584

# Combine positive and negative

variable C15 equal 0.5*(-0.8571968637026+0.5382420844527)
variable C25 equal 0.5*(-0.2473429040252+0.245509286609702)
variable C35 equal 0.5*(-0.541810064477202+-0.2027668290473)
variable C45 equal 0.5*(-1.41189530924508+0.871799929389003)
variable C55 equal 0.5*(-1.3524120576928+1.44376051305521)
variable C65 equal 0.5*(-0.854634225777141+0.931832774952584)

# Delete dir to make sure it is not reused

variable dir delete

# uxy Perturbation

variable dir equal 6
include displace.mod
# NOTE: This script should not need to be
# modified. See in.elastic for more info.
#
# Find which reference length to use

variable len0 equal 6.35301429848309

# Reset box and simulation parameters

clear
box tilt large

The 'box' command has been removed and will be ignored

read_restart restart.equil
Reading restart file ...
  restart file = 7 Feb 2024, LAMMPS = 7 Feb 2024
  restoring atom style atomic from restart
  triclinic box = (0 0 0) to (6.9541015 6.3530143 28.422936) with tilt (2.6303553 0.54033995 1.3928068)
  pair style schnetpack stores no restart info
  104 atoms
  read_restart CPU = 0.000 seconds
include potential.mod
# NOTE: This script can be modified for different pair styles
# See in.elastic for more info.

# we must undefine any fix ave/* fix before using reset_timestep
if "$(is_defined(fix,avp))" then "unfix avp"
reset_timestep 0

newton off

# Choose potential
# pair_style	sw
# pair_coeff * * Si.sw Si
pair_style	schnetpack
pair_coeff	* * deploy_model 20 14 8 1

atom_modify sort 0 0.0
#kspace_style	ewald 1.0e-6# Setup neighbor style

neighbor 2.0 bin
neigh_modify once no every 1 delay 0 check yes

# Setup output

fix avp all ave/time  10 10 100 c_thermo_press mode vector

min_style cg
minimize 1.0e-15 1.0e-15 100000 100000 #设置能量最小化
Loop time of 7.92817 on 1 procs for 24 steps with 104 atoms

Minimization stats:
  Stopping criterion = linesearch alpha is zero
  Energy initial, next-to-last, final =
  Force two-norm initial, final = 162.26683 185.7489
  Force max component initial, final = 48.431133 65.713577
  Final line search alpha, max atom move = 3.5430791e-13 2.328284e-11
  Iterations, force evaluations = 24 312

thermo		100
thermo_style custom step temp pe press f_avp[1] f_avp[2] f_avp[3] f_avp[4] f_avp[5] f_avp[6]
thermo_modify norm no

# Setup MD

timestep 1e-05
fix 4 all nve
fix 5 all langevin 300 300 0.0001 123457

# Negative deformation

variable delta equal -0.02*6.35301429848309
variable deltaxy equal -0.02*xy
variable deltaxz equal -0.02*xz
variable deltayz equal -0.02*yz
change_box all xy delta -0.127060285969662 remap units box
Changing box ...
  triclinic box = (0 0 0) to (6.9541015 6.3530143 28.422936) with tilt (2.503295 0.54033995 1.3928068)

# Run MD

run 1000
Loop time of 23.4038 on 1 procs for 1000 steps with 104 atoms

include potential.mod
# NOTE: This script can be modified for different pair styles
# See in.elastic for more info.

# we must undefine any fix ave/* fix before using reset_timestep
if "$(is_defined(fix,avp))" then "unfix avp"
unfix avp
reset_timestep 0

newton off

# Choose potential
# pair_style	sw
# pair_coeff * * Si.sw Si
pair_style	schnetpack
pair_coeff	* * deploy_model 20 14 8 1

atom_modify sort 0 0.0
#kspace_style	ewald 1.0e-6# Setup neighbor style

neighbor 2.0 bin
neigh_modify once no every 1 delay 0 check yes

# Setup output

fix avp all ave/time  10 10 100 c_thermo_press mode vector

min_style cg
minimize 1.0e-15 1.0e-15 100000 100000 #设置能量最小化
Loop time of 15.1114 on 1 procs for 16 steps with 104 atoms

Minimization stats:
  Stopping criterion = linesearch alpha is zero
  Energy initial, next-to-last, final =
  Force two-norm initial, final = 115.44505 117.33124
  Force max component initial, final = 35.646362 37.960178
  Final line search alpha, max atom move = 6.1335159e-13 2.3282936e-11
  Iterations, force evaluations = 16 513

thermo		100
thermo_style custom step temp pe press f_avp[1] f_avp[2] f_avp[3] f_avp[4] f_avp[5] f_avp[6]
thermo_modify norm no

# Setup MD

timestep 1e-05
fix 4 all nve
fix 5 all langevin 300 300 0.0001 123457

run 300
Loop time of 6.93298 on 1 procs for 300 steps with 104 atoms

# Obtain new stress tensor

variable pxx1 equal f_avp[1]
variable pyy1 equal f_avp[2]
variable pzz1 equal f_avp[3]
variable pxy1 equal f_avp[4]
variable pxz1 equal f_avp[5]
variable pyz1 equal f_avp[6]

# Compute elastic constant from pressure tensor

variable C1neg equal -0.823103897201898
variable C2neg equal -1.0073583620166
variable C3neg equal 0.169860721548
variable C4neg equal -0.627033823489776
variable C5neg equal -1.33437446846549
variable C6neg equal -0.758093458755098

# Reset box and simulation parameters

clear
box tilt large

The 'box' command has been removed and will be ignored

read_restart restart.equil
Reading restart file ...
  restart file = 7 Feb 2024, LAMMPS = 7 Feb 2024
  restoring atom style atomic from restart
  triclinic box = (0 0 0) to (6.9541015 6.3530143 28.422936) with tilt (2.6303553 0.54033995 1.3928068)
  pair style schnetpack stores no restart info
  104 atoms
  read_restart CPU = 0.000 seconds
include potential.mod
# NOTE: This script can be modified for different pair styles
# See in.elastic for more info.

# we must undefine any fix ave/* fix before using reset_timestep
if "$(is_defined(fix,avp))" then "unfix avp"
reset_timestep 0

newton off

# Choose potential
# pair_style	sw
# pair_coeff * * Si.sw Si
pair_style	schnetpack
pair_coeff	* * deploy_model 20 14 8 1

atom_modify sort 0 0.0
#kspace_style	ewald 1.0e-6# Setup neighbor style

neighbor 2.0 bin
neigh_modify once no every 1 delay 0 check yes

# Setup output

fix avp all ave/time  10 10 100 c_thermo_press mode vector

min_style cg
minimize 1.0e-15 1.0e-15 100000 100000 #设置能量最小化
Loop time of 15.2043 on 1 procs for 32 steps with 104 atoms

Minimization stats:
  Stopping criterion = linesearch alpha is zero
  Energy initial, next-to-last, final =
  Force two-norm initial, final = 162.26685 158.31237
  Force max component initial, final = 48.431168 65.096558
  Final line search alpha, max atom move = 3.5766896e-13 2.3283018e-11
  Iterations, force evaluations = 32 624

thermo		100
thermo_style custom step temp pe press f_avp[1] f_avp[2] f_avp[3] f_avp[4] f_avp[5] f_avp[6]
thermo_modify norm no

# Setup MD

timestep 1e-05
fix 4 all nve
fix 5 all langevin 300 300 0.0001 123457

# Positive deformation

variable delta equal 0.02*6.35301429848309
variable deltaxy equal 0.02*xy
variable deltaxz equal 0.02*xz
variable deltayz equal 0.02*yz
change_box all xy delta 0.127060285969662 remap units box
Changing box ...
  triclinic box = (0 0 0) to (6.9541015 6.3530143 28.422936) with tilt (2.7574155 0.54033995 1.3928068)

# Run MD

run 1000
Loop time of 23.5025 on 1 procs for 1000 steps with 104 atoms

include potential.mod
# NOTE: This script can be modified for different pair styles
# See in.elastic for more info.

# we must undefine any fix ave/* fix before using reset_timestep
if "$(is_defined(fix,avp))" then "unfix avp"
unfix avp
reset_timestep 0

newton off

# Choose potential
# pair_style	sw
# pair_coeff * * Si.sw Si
pair_style	schnetpack
pair_coeff	* * deploy_model 20 14 8 1

atom_modify sort 0 0.0
#kspace_style	ewald 1.0e-6# Setup neighbor style

neighbor 2.0 bin
neigh_modify once no every 1 delay 0 check yes

# Setup output

fix avp all ave/time  10 10 100 c_thermo_press mode vector

min_style cg
minimize 1.0e-15 1.0e-15 100000 100000 #设置能量最小化
Loop time of 7.73598 on 1 procs for 19 steps with 104 atoms

Minimization stats:
  Stopping criterion = linesearch alpha is zero
  Energy initial, next-to-last, final =
  Force two-norm initial, final = 641.37583 112.4948
  Force max component initial, final = 407.08105 62.859909
  Final line search alpha, max atom move = 7.4079195e-13 4.6566115e-11
  Iterations, force evaluations = 19 200

thermo		100
thermo_style custom step temp pe press f_avp[1] f_avp[2] f_avp[3] f_avp[4] f_avp[5] f_avp[6]
thermo_modify norm no

# Setup MD

timestep 1e-05
fix 4 all nve
fix 5 all langevin 300 300 0.0001 123457

run 300
Loop time of 7.09035 on 1 procs for 300 steps with 104 atoms

# Obtain new stress tensor

variable pxx1 equal f_avp[1]
variable pyy1 equal f_avp[2]
variable pzz1 equal f_avp[3]
variable pxy1 equal f_avp[4]
variable pxz1 equal f_avp[5]
variable pyz1 equal f_avp[6]

# Compute elastic constant from pressure tensor

variable C1pos equal -0.174630334445148
variable C2pos equal 1.2690193990082
variable C3pos equal 0.1082327768509
variable C4pos equal 1.11324592511982
variable C5pos equal 0.728503230070919
variable C6pos equal -0.0993996476796398

# Combine positive and negative

variable C16 equal 0.5*(-0.823103897201898+-0.174630334445148)
variable C26 equal 0.5*(-1.0073583620166+1.2690193990082)
variable C36 equal 0.5*(0.169860721548+0.1082327768509)
variable C46 equal 0.5*(-0.627033823489776+1.11324592511982)
variable C56 equal 0.5*(-1.33437446846549+0.728503230070919)
variable C66 equal 0.5*(-0.758093458755098+-0.0993996476796398)

# Delete dir to make sure it is not reused

variable dir delete

# Output final values

variable C11all equal 0.305660521510074
variable C22all equal 0.142734244537675
variable C33all equal 1.0916324180311

variable C12all equal 0.5*(0.54820066059895+0.776179332069049)
variable C13all equal 0.5*(0.531767550327174+0.963837191489149)
variable C23all equal 0.5*(0.226591967976325+-0.258157983289774)

variable C44all equal 0.20510004097481
variable C55all equal 0.045674227681205
variable C66all equal -0.428746553217369

variable C14all equal 0.5*(-0.139181053336924+0.252608057980781)
variable C15all equal 0.5*(-0.15947738962495+-0.029791059202065)
variable C16all equal 0.5*(-0.498867115823523+-0.397807369553607)

variable C24all equal 0.5*(0.454266783454849+-0.37694480846398)
variable C25all equal 0.5*(-0.000916808707749003+-0.05841598819212)
variable C26all equal 0.5*(0.1308305184958+0.03621656570451)

variable C34all equal 0.5*(0.475996597250451+0.191403426626637)
variable C35all equal 0.5*(-0.372288446762251+0.165044187212748)
variable C36all equal 0.5*(0.13904674919945+0.061240160675979)

variable C45all equal 0.5*(-0.270047689928039+-0.183407040289308)
variable C46all equal 0.5*(0.243106050815022+-0.467355139833135)
variable C56all equal 0.5*(-0.302935619197285+0.0385992745877215)

print "========================================="
=========================================
print "Components of the Elastic Constant Tensor"
Components of the Elastic Constant Tensor
print "========================================="
=========================================

Elastic Constant C11all = 0.305660521510074 GPa
Elastic Constant C22all = 0.142734244537675 GPa
Elastic Constant C33all = 1.0916324180311 GPa

Elastic Constant C12all = 0.662189996333999 GPa
Elastic Constant C13all = 0.747802370908162 GPa
Elastic Constant C23all = -0.0157830076567245 GPa

Elastic Constant C44all = 0.20510004097481 GPa
Elastic Constant C55all = 0.045674227681205 GPa
Elastic Constant C66all = -0.428746553217369 GPa

Elastic Constant C14all = 0.0567135023219285 GPa
Elastic Constant C15all = -0.0946342244135075 GPa
Elastic Constant C16all = -0.448337242688565 GPa

Elastic Constant C24all = 0.0386609874954345 GPa
Elastic Constant C25all = -0.0296663984499345 GPa
Elastic Constant C26all = 0.083523542100155 GPa

Elastic Constant C34all = 0.333700011938544 GPa
Elastic Constant C35all = -0.103622129774751 GPa
Elastic Constant C36all = 0.100143454937715 GPa

Elastic Constant C45all = -0.226727365108674 GPa
Elastic Constant C46all = -0.112124544509056 GPa
Elastic Constant C56all = -0.132168172304782 GPa

print " "

print "Cij tensor matrix"
Cij tensor matrix
print " "

write_restart restart2
System init for write_restart ...
