LAMMPS (29 Sep 2021 - Update 2)
# Compute elastic constant tensor for a crystal at finite temperature
#
# WARNING: This script attempts to measure small differences in
# statistical averages generated by finite temperature MD simulations.
# This creates many more opportunities for errors to occur, compared
# to the zero temperature version provided in examples/ELASTIC.
# Hence, it is always a good idea to start with the zero temperature
# calculation, before attempting to use this script.
#
# Written by Aidan Thompson (Sandia, athomps@sandia.gov)
#
#  This script uses the following three include files.
#
#   init.mod      (must be modified for different crystal structures)
# 	       	  Define units, MD parameters, deformation parameters,
#		  and initial configuration of the atoms and simulation cell.
#
#
#   potential.mod    (must be modified for different pair styles)
# 		     Define pair style and other attributes
#		     not stored in restart file
#
#
#   displace.mod    (displace.mod should not need to be modified)
# 		    Perform positive and negative box displacements
# 		    It uses the resultant changes
#		    in stress to compute one
# 		    row of the elastic stiffness tensor
#
#		    Inputs variables:
#		    	   dir = the Voigt deformation component
#		    		    (1,2,3,4,5,6)
#		    Global constants:
#       	    	   up = the deformation magnitude (strain units)
#       		   cfac = conversion from LAMMPS pressure units to
#               	   output units for elastic constants
#
#
#  To run this on a different system, it should only be necessary to
#  modify the files init.mod and potential.mod. In order to calculate
#  the elastic constants correctly, care must be taken to specify
#  the correct units in init.mod (units, cfac and cunits). It is also
#  important to verify that the MD sampling of stress components
#  is generating accurate statistical averages.
#  One indication of this is that the elastic constants are insensitive
#  check for finite size effects.
#

# include init.mod

# NOTE: This script can be modified for different atomic structures,
# units, etc. See in.elastic for more info.
#

# Define the finite deformation size. Try several values of this
# variable to verify that results do not depend on it.
variable up equal 2.0e-2

# real units, elastic constants in GPa
units		metal
atom_style atomic
variable cfac equal 1.0e-4
variable cunits string GPa

# Define MD parameters
variable nevery equal 10                  # sampling interval
variable nrepeat equal 10                 # number of samples
variable nfreq equal 10*10
variable nthermo equal 100
variable nequil equal 10*100
variable nrun equal 3*100
variable temp equal 300                   # temperature of initial sample
variable timestep equal 0.001             # timestep
variable adiabatic equal 2                # adiabatic (1) or isothermal (2)
variable tdamp equal 0.01                 # time constant for thermostat
variable seed equal 123457                # seed for thermostat

# generate the box and atom positions using a diamond lattice
variable a equal 5.431

boundary	p p p
newton off

box tilt large
read_data tob11_ref_deepmd.data
Reading data file ...
  triclinic box = (0.0000000 0.0000000 0.0000000) to (6.8037000 6.1848150 22.405446) with tilt (2.6646871 0.29402869 -0.26981789)
  reading atoms ...
  88 atoms

pair_style	nequip
pair_coeff	* * tob11_l3-deployed.pth Ca H O Si
mass            1 40.079800
mass            4 28.08500
mass            3 15.9994
mass            2 1.00794

change_box all triclinic
Changing box ...
  triclinic box = (0.0000000 0.0000000 0.0000000) to (6.8037000 6.1848150 22.405446) with tilt (2.6646871 0.29402869 -0.26981789)

velocity	all create 300 87287

thermo 100
min_style cg
minimize 1.0e-15 1.0e-15 100000 100000 #设置能量最小化
  update every 1 steps, delay 0 steps, check yes
Step Temp E_pair E_mol TotEng Press
0          300   -571.45819            0    -568.0845    22082.848
Loop time of 173.308 on 1 procs for 130 steps with 88 atoms

Minimization stats:
  Stopping criterion = energy tolerance
  Energy initial, next-to-last, final =
  Force two-norm initial, final = 16.218337 0.070429361
  Force max component initial, final = 3.6757267 0.018077618
  Final line search alpha, max atom move = 0.23889980 0.0043187392
  Iterations, force evaluations = 130 268

thermo_style  custom step temp press etotal lx ly lz xy yz xz pxx pyy pzz

#timestep 0.0001

#fix 456 all nve
#fix 567 all langevin 300.0 300.0 0.1 12345

#run 5000

#unfix 456
#unfix 567
fix 123 all npt temp 300 300 1 tri 1.0 1.0 1
run 10000
Step Temp Press TotEng Lx Ly Lz Xy Yz Xz Pxx Pyy Pzz
130          300     12235.57   -574.48868       6.8037     6.184815    22.405446    2.6646871  -0.26981789   0.29402869     7986.937    14484.813    14234.959
Averages over the last 51 of 102 rows, steps 5200 to 10130:
Temp Press TotEng Lx Ly Lz Xy Yz Xz Pxx Pyy Pzz
303.321 -80.1189 -571.145 6.82194 6.22978 22.6916 2.75878 0.112153 -0.0560531 -83.4572 -512.336 355.436
Loop time of 2977.74 on 1 procs for 10000 steps with 88 atoms

unfix 123

# Compute initial state

variable thermostat equal 0
include potential.mod
# NOTE: This script can be modified for different pair styles
# See in.elastic for more info.

# we must undefine any fix ave/* fix before using reset_timestep
if "$(is_defined(fix,avp))" then "unfix avp"
reset_timestep 0

newton off

# Choose potential
# pair_style	sw
# pair_coeff * * Si.sw Si
pair_style	nequip
pair_coeff	* * tob11_l3-deployed.pth Ca H O Si

atom_modify sort 0 0.0
#kspace_style	ewald 1.0e-6# Setup neighbor style

neighbor 2.0 bin
neigh_modify once no every 1 delay 0 check yes

# Setup output

fix avp all ave/time  10 10 100 c_thermo_press mode vector

#min_style cg
#minimize 1.0e-15 1.0e-15 100000 100000 #设置能量最小化

thermo		100
thermo_style custom step temp pe press f_avp[1] f_avp[2] f_avp[3] f_avp[4] f_avp[5] f_avp[6]
thermo_modify norm no

# Setup MD

timestep 0.001
fix 4 all nve

run 1000
Step Temp PotEng Press f_avp[1] f_avp[2] f_avp[3] f_avp[4] f_avp[5] f_avp[6]
0    304.34033   -574.76245    9895.9924            0            0            0            0            0            0
Averages over the last 6 of 11 rows, steps 500 to 1000:
Temp PotEng Press f_avp[1] f_avp[2] f_avp[3] f_avp[4] f_avp[5] f_avp[6]
282.098 -574.503 7201.69 1988.83 12420.1 6479.81 7219.52 6100.89 -2724.34
Loop time of 101.053 on 1 procs for 1000 steps with 88 atoms

variable thermostat equal 1

print 1
1

include potential.mod
# NOTE: This script can be modified for different pair styles
# See in.elastic for more info.

# we must undefine any fix ave/* fix before using reset_timestep
if "$(is_defined(fix,avp))" then "unfix avp"
unfix avp
reset_timestep 0

newton off

# Choose potential
# pair_style	sw
# pair_coeff * * Si.sw Si
pair_style	nequip
pair_coeff	* * tob11_l3-deployed.pth Ca H O Si

atom_modify sort 0 0.0
#kspace_style	ewald 1.0e-6# Setup neighbor style

neighbor 2.0 bin
neigh_modify once no every 1 delay 0 check yes

# Setup output

fix avp all ave/time  10 10 100 c_thermo_press mode vector

#min_style cg
#minimize 1.0e-15 1.0e-15 100000 100000 #设置能量最小化

thermo		100
thermo_style custom step temp pe press f_avp[1] f_avp[2] f_avp[3] f_avp[4] f_avp[5] f_avp[6]
thermo_modify norm no

# Setup MD

timestep 0.001
fix 4 all nve
fix 5 all langevin 300 300 0.01 123457

run 300
Step Temp PotEng Press f_avp[1] f_avp[2] f_avp[3] f_avp[4] f_avp[5] f_avp[6]
0    254.48935   -574.18359    16331.743            0            0            0            0            0            0
Loop time of 34.2936 on 1 procs for 300 steps with 88 atoms

variable pxx0 equal f_avp[1]
variable pyy0 equal f_avp[2]
variable pzz0 equal f_avp[3]
variable pxy0 equal f_avp[4]
variable pxz0 equal f_avp[5]
variable pyz0 equal f_avp[6]

variable tmp equal lx
variable lx0 equal 6.84381504221731
variable tmp equal ly
variable ly0 equal 6.14999836103117
variable tmp equal lz
variable lz0 equal 22.6539682924997

# These formulas define the derivatives w.r.t. strain components
# Constants uses $, variables use v_
variable d1 equal -(v_pxx1-992.389333050142)/(v_delta/v_len0)*0.0001
variable d2 equal -(v_pyy1-12311.8803372596)/(v_delta/v_len0)*0.0001
variable d3 equal -(v_pzz1-8915.45611766425)/(v_delta/v_len0)*0.0001
variable d4 equal -(v_pyz1--5585.67560706358)/(v_delta/v_len0)*0.0001
variable d5 equal -(v_pxz1--1555.80382503666)/(v_delta/v_len0)*0.0001
variable d6 equal -(v_pxy1-5572.35016854694)/(v_delta/v_len0)*0.0001

# Write restart
write_restart restart.equil
System init for write_restart ...

# uxx Perturbation

variable dir equal 1
include displace.mod
# NOTE: This script should not need to be
# modified. See in.elastic for more info.
#
# Find which reference length to use

variable len0 equal 6.84381504221731

# Reset box and simulation parameters

clear
box tilt large
read_restart restart.equil
Reading restart file ...
  restart file = 29 Sep 2021, LAMMPS = 29 Sep 2021
  restoring atom style atomic from restart
  triclinic box = (-0.020057521 0.017408306 -0.12426097) to (6.8237575 6.1674067 22.529707) with tilt (2.6364745 -1.1230599 0.12486621)
  pair style nequip stores no restart info
  88 atoms
  read_restart CPU = 0.000 seconds
include potential.mod
# NOTE: This script can be modified for different pair styles
# See in.elastic for more info.

# we must undefine any fix ave/* fix before using reset_timestep
if "$(is_defined(fix,avp))" then "unfix avp"
reset_timestep 0

newton off

# Choose potential
# pair_style	sw
# pair_coeff * * Si.sw Si
pair_style	nequip
pair_coeff	* * tob11_l3-deployed.pth Ca H O Si

atom_modify sort 0 0.0
#kspace_style	ewald 1.0e-6# Setup neighbor style

neighbor 2.0 bin
neigh_modify once no every 1 delay 0 check yes

# Setup output

fix avp all ave/time  10 10 100 c_thermo_press mode vector

#min_style cg
#minimize 1.0e-15 1.0e-15 100000 100000 #设置能量最小化

thermo		100
thermo_style custom step temp pe press f_avp[1] f_avp[2] f_avp[3] f_avp[4] f_avp[5] f_avp[6]
thermo_modify norm no

# Setup MD

timestep 0.001
fix 4 all nve
fix 5 all langevin 300 300 0.01 123457

# Negative deformation

variable delta equal -0.02*6.84381504221731
variable deltaxy equal -0.02*xy
variable deltaxz equal -0.02*xz
variable deltayz equal -0.02*yz
change_box all x delta 0 -0.136876300844346 xy delta -0.0527294908948237 xz delta 0.0224611984159612 remap units box
Changing box ...
  triclinic box = (-0.020057521 0.017408306 -0.12426097) to (6.6868812 6.1674067 22.529707) with tilt (2.6364745 -1.1230599 0.12486621)
  triclinic box = (-0.020057521 0.017408306 -0.12426097) to (6.6868812 6.1674067 22.529707) with tilt (2.5837451 -1.1230599 0.12486621)
  triclinic box = (-0.020057521 0.017408306 -0.12426097) to (6.6868812 6.1674067 22.529707) with tilt (2.5837451 -1.1005987 0.12486621)

# Run MD

run 1000
  update every 1 steps, delay 0 steps, check yes
Step Temp PotEng Press f_avp[1] f_avp[2] f_avp[3] f_avp[4] f_avp[5] f_avp[6]
0    283.36043   -573.75592    41062.127            0            0            0            0            0            0
Averages over the last 6 of 11 rows, steps 500 to 1000:
Temp PotEng Press f_avp[1] f_avp[2] f_avp[3] f_avp[4] f_avp[5] f_avp[6]
314.538 -574.352 19639.9 27199.4 26398.9 15526.9 4704.93 3299.4 -3396.99
Loop time of 103.583 on 1 procs for 1000 steps with 88 atoms

include potential.mod
# NOTE: This script can be modified for different pair styles
# See in.elastic for more info.

# we must undefine any fix ave/* fix before using reset_timestep
if "$(is_defined(fix,avp))" then "unfix avp"
unfix avp
reset_timestep 0

newton off

# Choose potential
# pair_style	sw
# pair_coeff * * Si.sw Si
pair_style	nequip
pair_coeff	* * tob11_l3-deployed.pth Ca H O Si

atom_modify sort 0 0.0
#kspace_style	ewald 1.0e-6# Setup neighbor style

neighbor 2.0 bin
neigh_modify once no every 1 delay 0 check yes

# Setup output

fix avp all ave/time  10 10 100 c_thermo_press mode vector

#min_style cg
#minimize 1.0e-15 1.0e-15 100000 100000 #设置能量最小化

thermo		100
thermo_style custom step temp pe press f_avp[1] f_avp[2] f_avp[3] f_avp[4] f_avp[5] f_avp[6]
thermo_modify norm no

# Setup MD

timestep 0.001
fix 4 all nve
fix 5 all langevin 300 300 0.01 123457

run 300
Step Temp PotEng Press f_avp[1] f_avp[2] f_avp[3] f_avp[4] f_avp[5] f_avp[6]
0    342.98004   -573.87067    13593.833            0            0            0            0            0            0
Loop time of 35.1162 on 1 procs for 300 steps with 88 atoms

# Obtain new stress tensor

variable pxx1 equal f_avp[1]
variable pyy1 equal f_avp[2]
variable pzz1 equal f_avp[3]
variable pxy1 equal f_avp[4]
variable pxz1 equal f_avp[5]
variable pyz1 equal f_avp[6]

# Compute elastic constant from pressure tensor

variable C1neg equal 113.5700557922
variable C2neg equal 50.8818009651926
variable C3neg equal 13.4804301559278
variable C4neg equal 8.74316823260651
variable C5neg equal 7.6617614189972
variable C6neg equal -18.3183715842529

# Reset box and simulation parameters

clear
box tilt large
read_restart restart.equil
Reading restart file ...
  restart file = 29 Sep 2021, LAMMPS = 29 Sep 2021
  restoring atom style atomic from restart
  triclinic box = (-0.020057521 0.017408306 -0.12426097) to (6.8237575 6.1674067 22.529707) with tilt (2.6364745 -1.1230599 0.12486621)
  pair style nequip stores no restart info
  88 atoms
  read_restart CPU = 0.000 seconds
include potential.mod
# NOTE: This script can be modified for different pair styles
# See in.elastic for more info.

# we must undefine any fix ave/* fix before using reset_timestep
if "$(is_defined(fix,avp))" then "unfix avp"
reset_timestep 0

newton off

# Choose potential
# pair_style	sw
# pair_coeff * * Si.sw Si
pair_style	nequip
pair_coeff	* * tob11_l3-deployed.pth Ca H O Si

atom_modify sort 0 0.0
#kspace_style	ewald 1.0e-6# Setup neighbor style

neighbor 2.0 bin
neigh_modify once no every 1 delay 0 check yes

# Setup output

fix avp all ave/time  10 10 100 c_thermo_press mode vector

#min_style cg
#minimize 1.0e-15 1.0e-15 100000 100000 #设置能量最小化

thermo		100
thermo_style custom step temp pe press f_avp[1] f_avp[2] f_avp[3] f_avp[4] f_avp[5] f_avp[6]
thermo_modify norm no

# Setup MD

timestep 0.001
fix 4 all nve
fix 5 all langevin 300 300 0.01 123457

# Positive deformation

variable delta equal 0.02*6.84381504221731
variable deltaxy equal 0.02*xy
variable deltaxz equal 0.02*xz
variable deltayz equal 0.02*yz
change_box all x delta 0 0.136876300844346 xy delta 0.0527294908948237 xz delta -0.0224611984159612 remap units box
Changing box ...
  triclinic box = (-0.020057521 0.017408306 -0.12426097) to (6.9606338 6.1674067 22.529707) with tilt (2.6364745 -1.1230599 0.12486621)
  triclinic box = (-0.020057521 0.017408306 -0.12426097) to (6.9606338 6.1674067 22.529707) with tilt (2.6892040 -1.1230599 0.12486621)
  triclinic box = (-0.020057521 0.017408306 -0.12426097) to (6.9606338 6.1674067 22.529707) with tilt (2.6892040 -1.1455211 0.12486621)

# Run MD

run 1000
  update every 1 steps, delay 0 steps, check yes
Step Temp PotEng Press f_avp[1] f_avp[2] f_avp[3] f_avp[4] f_avp[5] f_avp[6]
0    283.36043   -573.73865   -18434.296            0            0            0            0            0            0
Averages over the last 6 of 11 rows, steps 500 to 1000:
Temp PotEng Press f_avp[1] f_avp[2] f_avp[3] f_avp[4] f_avp[5] f_avp[6]
315.202 -574.281 -6254.23 -16217.9 5309.22 2723.96 5991.73 2443.59 -4879.15
Loop time of 99.1614 on 1 procs for 1000 steps with 88 atoms

include potential.mod
# NOTE: This script can be modified for different pair styles
# See in.elastic for more info.

# we must undefine any fix ave/* fix before using reset_timestep
if "$(is_defined(fix,avp))" then "unfix avp"
unfix avp
reset_timestep 0

newton off

# Choose potential
# pair_style	sw
# pair_coeff * * Si.sw Si
pair_style	nequip
pair_coeff	* * tob11_l3-deployed.pth Ca H O Si

atom_modify sort 0 0.0
#kspace_style	ewald 1.0e-6# Setup neighbor style

neighbor 2.0 bin
neigh_modify once no every 1 delay 0 check yes

# Setup output

fix avp all ave/time  10 10 100 c_thermo_press mode vector

#min_style cg
#minimize 1.0e-15 1.0e-15 100000 100000 #设置能量最小化

thermo		100
thermo_style custom step temp pe press f_avp[1] f_avp[2] f_avp[3] f_avp[4] f_avp[5] f_avp[6]
thermo_modify norm no

# Setup MD

timestep 0.001
fix 4 all nve
fix 5 all langevin 300 300 0.01 123457

run 300
Step Temp PotEng Press f_avp[1] f_avp[2] f_avp[3] f_avp[4] f_avp[5] f_avp[6]
0    338.52228   -573.77405   -12097.955            0            0            0            0            0            0
Loop time of 33.743 on 1 procs for 300 steps with 88 atoms

# Obtain new stress tensor

variable pxx1 equal f_avp[1]
variable pyy1 equal f_avp[2]
variable pzz1 equal f_avp[3]
variable pxy1 equal f_avp[4]
variable pxz1 equal f_avp[5]
variable pyz1 equal f_avp[6]

# Compute elastic constant from pressure tensor

variable C1pos equal 92.0084085098299
variable C2pos equal 59.5522882294287
variable C3pos equal 48.4819428951275
variable C4pos equal -0.0307099066523506
variable C5pos equal -7.53909064624033
variable C6pos equal 13.5850598967662

# Combine positive and negative

variable C11 equal 0.5*(113.5700557922+92.0084085098299)
variable C21 equal 0.5*(50.8818009651926+59.5522882294287)
variable C31 equal 0.5*(13.4804301559278+48.4819428951275)
variable C41 equal 0.5*(8.74316823260651+-0.0307099066523506)
variable C51 equal 0.5*(7.6617614189972+-7.53909064624033)
variable C61 equal 0.5*(-18.3183715842529+13.5850598967662)

# Delete dir to make sure it is not reused

variable dir delete

# uyy Perturbation

variable dir equal 2
include displace.mod
# NOTE: This script should not need to be
# modified. See in.elastic for more info.
#
# Find which reference length to use

variable len0 equal 6.14999836103117

# Reset box and simulation parameters

clear
box tilt large
read_restart restart.equil
Reading restart file ...
  restart file = 29 Sep 2021, LAMMPS = 29 Sep 2021
  restoring atom style atomic from restart
  triclinic box = (-0.020057521 0.017408306 -0.12426097) to (6.8237575 6.1674067 22.529707) with tilt (2.6364745 -1.1230599 0.12486621)
  pair style nequip stores no restart info
  88 atoms
  read_restart CPU = 0.000 seconds
include potential.mod
# NOTE: This script can be modified for different pair styles
# See in.elastic for more info.

# we must undefine any fix ave/* fix before using reset_timestep
if "$(is_defined(fix,avp))" then "unfix avp"
reset_timestep 0

newton off

# Choose potential
# pair_style	sw
# pair_coeff * * Si.sw Si
pair_style	nequip
pair_coeff	* * tob11_l3-deployed.pth Ca H O Si

atom_modify sort 0 0.0
#kspace_style	ewald 1.0e-6# Setup neighbor style

neighbor 2.0 bin
neigh_modify once no every 1 delay 0 check yes

# Setup output

fix avp all ave/time  10 10 100 c_thermo_press mode vector

#min_style cg
#minimize 1.0e-15 1.0e-15 100000 100000 #设置能量最小化

thermo		100
thermo_style custom step temp pe press f_avp[1] f_avp[2] f_avp[3] f_avp[4] f_avp[5] f_avp[6]
thermo_modify norm no

# Setup MD

timestep 0.001
fix 4 all nve
fix 5 all langevin 300 300 0.01 123457

# Negative deformation

variable delta equal -0.02*6.14999836103117
variable deltaxy equal -0.02*xy
variable deltaxz equal -0.02*xz
variable deltayz equal -0.02*yz
change_box all y delta 0 -0.122999967220623 yz delta -0.00249732425116545 remap units box
Changing box ...
  triclinic box = (-0.020057521 0.017408306 -0.12426097) to (6.8237575 6.0444067 22.529707) with tilt (2.6364745 -1.1230599 0.12486621)
  triclinic box = (-0.020057521 0.017408306 -0.12426097) to (6.8237575 6.0444067 22.529707) with tilt (2.6364745 -1.1230599 0.12236889)

# Run MD

run 1000
  update every 1 steps, delay 0 steps, check yes
Step Temp PotEng Press f_avp[1] f_avp[2] f_avp[3] f_avp[4] f_avp[5] f_avp[6]
0    283.36043   -573.67462    39615.222            0            0            0            0            0            0
Averages over the last 6 of 11 rows, steps 500 to 1000:
Temp PotEng Press f_avp[1] f_avp[2] f_avp[3] f_avp[4] f_avp[5] f_avp[6]
314.718 -574.211 21810.2 14427.5 43134.5 18137.1 3127.51 2308.58 -3554.41
Loop time of 104.209 on 1 procs for 1000 steps with 88 atoms

include potential.mod
# NOTE: This script can be modified for different pair styles
# See in.elastic for more info.

# we must undefine any fix ave/* fix before using reset_timestep
if "$(is_defined(fix,avp))" then "unfix avp"
unfix avp
reset_timestep 0

newton off

# Choose potential
# pair_style	sw
# pair_coeff * * Si.sw Si
pair_style	nequip
pair_coeff	* * tob11_l3-deployed.pth Ca H O Si

atom_modify sort 0 0.0
#kspace_style	ewald 1.0e-6# Setup neighbor style

neighbor 2.0 bin
neigh_modify once no every 1 delay 0 check yes

# Setup output

fix avp all ave/time  10 10 100 c_thermo_press mode vector

#min_style cg
#minimize 1.0e-15 1.0e-15 100000 100000 #设置能量最小化

thermo		100
thermo_style custom step temp pe press f_avp[1] f_avp[2] f_avp[3] f_avp[4] f_avp[5] f_avp[6]
thermo_modify norm no

# Setup MD

timestep 0.001
fix 4 all nve
fix 5 all langevin 300 300 0.01 123457

run 300
Step Temp PotEng Press f_avp[1] f_avp[2] f_avp[3] f_avp[4] f_avp[5] f_avp[6]
0    344.15576   -573.74506    15022.749            0            0            0            0            0            0
Loop time of 36.2676 on 1 procs for 300 steps with 88 atoms

# Obtain new stress tensor

variable pxx1 equal f_avp[1]
variable pyy1 equal f_avp[2]
variable pzz1 equal f_avp[3]
variable pxy1 equal f_avp[4]
variable pxz1 equal f_avp[5]
variable pyz1 equal f_avp[6]

# Compute elastic constant from pressure tensor

variable C1neg equal 54.7536337690765
variable C2neg equal 136.461554801752
variable C3neg equal 18.8279055356783
variable C4neg equal 13.9307260836097
variable C5neg equal 4.59934118518228
variable C6neg equal -22.7290035309094

# Reset box and simulation parameters

clear
box tilt large
read_restart restart.equil
Reading restart file ...
  restart file = 29 Sep 2021, LAMMPS = 29 Sep 2021
  restoring atom style atomic from restart
  triclinic box = (-0.020057521 0.017408306 -0.12426097) to (6.8237575 6.1674067 22.529707) with tilt (2.6364745 -1.1230599 0.12486621)
  pair style nequip stores no restart info
  88 atoms
  read_restart CPU = 0.000 seconds
include potential.mod
# NOTE: This script can be modified for different pair styles
# See in.elastic for more info.

# we must undefine any fix ave/* fix before using reset_timestep
if "$(is_defined(fix,avp))" then "unfix avp"
reset_timestep 0

newton off

# Choose potential
# pair_style	sw
# pair_coeff * * Si.sw Si
pair_style	nequip
pair_coeff	* * tob11_l3-deployed.pth Ca H O Si

atom_modify sort 0 0.0
#kspace_style	ewald 1.0e-6# Setup neighbor style

neighbor 2.0 bin
neigh_modify once no every 1 delay 0 check yes

# Setup output

fix avp all ave/time  10 10 100 c_thermo_press mode vector

#min_style cg
#minimize 1.0e-15 1.0e-15 100000 100000 #设置能量最小化

thermo		100
thermo_style custom step temp pe press f_avp[1] f_avp[2] f_avp[3] f_avp[4] f_avp[5] f_avp[6]
thermo_modify norm no

# Setup MD

timestep 0.001
fix 4 all nve
fix 5 all langevin 300 300 0.01 123457

# Positive deformation

variable delta equal 0.02*6.14999836103117
variable deltaxy equal 0.02*xy
variable deltaxz equal 0.02*xz
variable deltayz equal 0.02*yz
change_box all y delta 0 0.122999967220623 yz delta 0.00249732425116545 remap units box
Changing box ...
  triclinic box = (-0.020057521 0.017408306 -0.12426097) to (6.8237575 6.2904066 22.529707) with tilt (2.6364745 -1.1230599 0.12486621)
  triclinic box = (-0.020057521 0.017408306 -0.12426097) to (6.8237575 6.2904066 22.529707) with tilt (2.6364745 -1.1230599 0.12736354)

# Run MD

run 1000
  update every 1 steps, delay 0 steps, check yes
Step Temp PotEng Press f_avp[1] f_avp[2] f_avp[3] f_avp[4] f_avp[5] f_avp[6]
0    283.36043   -573.87067   -17019.299            0            0            0            0            0            0
Averages over the last 6 of 11 rows, steps 500 to 1000:
Temp PotEng Press f_avp[1] f_avp[2] f_avp[3] f_avp[4] f_avp[5] f_avp[6]
315.577 -574.376 -9601.14 -6832.21 -10326.1 -378.099 8118.31 3317.99 -5114.53
Loop time of 94.653 on 1 procs for 1000 steps with 88 atoms

include potential.mod
# NOTE: This script can be modified for different pair styles
# See in.elastic for more info.

# we must undefine any fix ave/* fix before using reset_timestep
if "$(is_defined(fix,avp))" then "unfix avp"
unfix avp
reset_timestep 0

newton off

# Choose potential
# pair_style	sw
# pair_coeff * * Si.sw Si
pair_style	nequip
pair_coeff	* * tob11_l3-deployed.pth Ca H O Si

atom_modify sort 0 0.0
#kspace_style	ewald 1.0e-6# Setup neighbor style

neighbor 2.0 bin
neigh_modify once no every 1 delay 0 check yes

# Setup output

fix avp all ave/time  10 10 100 c_thermo_press mode vector

#min_style cg
#minimize 1.0e-15 1.0e-15 100000 100000 #设置能量最小化

thermo		100
thermo_style custom step temp pe press f_avp[1] f_avp[2] f_avp[3] f_avp[4] f_avp[5] f_avp[6]
thermo_modify norm no

# Setup MD

timestep 0.001
fix 4 all nve
fix 5 all langevin 300 300 0.01 123457

run 300
Step Temp PotEng Press f_avp[1] f_avp[2] f_avp[3] f_avp[4] f_avp[5] f_avp[6]
0    342.25861   -573.86334   -15206.564            0            0            0            0            0            0
Loop time of 29.1984 on 1 procs for 300 steps with 88 atoms

# Obtain new stress tensor

variable pxx1 equal f_avp[1]
variable pyy1 equal f_avp[2]
variable pzz1 equal f_avp[3]
variable pxy1 equal f_avp[4]
variable pxz1 equal f_avp[5]
variable pyz1 equal f_avp[6]

# Compute elastic constant from pressure tensor

variable C1pos equal 48.9615551626355
variable C2pos equal 141.329587109468
variable C3pos equal 65.8849046103807
variable C4pos equal 5.22403232488172
variable C5pos equal -11.158746360716
variable C6pos equal 3.55625034124016

# Combine positive and negative

variable C12 equal 0.5*(54.7536337690765+48.9615551626355)
variable C22 equal 0.5*(136.461554801752+141.329587109468)
variable C32 equal 0.5*(18.8279055356783+65.8849046103807)
variable C42 equal 0.5*(13.9307260836097+5.22403232488172)
variable C52 equal 0.5*(4.59934118518228+-11.158746360716)
variable C62 equal 0.5*(-22.7290035309094+3.55625034124016)

# Delete dir to make sure it is not reused

variable dir delete

# uzz Perturbation

variable dir equal 3
include displace.mod
# NOTE: This script should not need to be
# modified. See in.elastic for more info.
#
# Find which reference length to use

variable len0 equal 22.6539682924997

# Reset box and simulation parameters

clear
box tilt large
read_restart restart.equil
Reading restart file ...
  restart file = 29 Sep 2021, LAMMPS = 29 Sep 2021
  restoring atom style atomic from restart
  triclinic box = (-0.020057521 0.017408306 -0.12426097) to (6.8237575 6.1674067 22.529707) with tilt (2.6364745 -1.1230599 0.12486621)
  pair style nequip stores no restart info
  88 atoms
  read_restart CPU = 0.000 seconds
include potential.mod
# NOTE: This script can be modified for different pair styles
# See in.elastic for more info.

# we must undefine any fix ave/* fix before using reset_timestep
if "$(is_defined(fix,avp))" then "unfix avp"
reset_timestep 0

newton off

# Choose potential
# pair_style	sw
# pair_coeff * * Si.sw Si
pair_style	nequip
pair_coeff	* * tob11_l3-deployed.pth Ca H O Si

atom_modify sort 0 0.0
#kspace_style	ewald 1.0e-6# Setup neighbor style

neighbor 2.0 bin
neigh_modify once no every 1 delay 0 check yes

# Setup output

fix avp all ave/time  10 10 100 c_thermo_press mode vector

#min_style cg
#minimize 1.0e-15 1.0e-15 100000 100000 #设置能量最小化

thermo		100
thermo_style custom step temp pe press f_avp[1] f_avp[2] f_avp[3] f_avp[4] f_avp[5] f_avp[6]
thermo_modify norm no

# Setup MD

timestep 0.001
fix 4 all nve
fix 5 all langevin 300 300 0.01 123457

# Negative deformation

variable delta equal -0.02*22.6539682924997
variable deltaxy equal -0.02*xy
variable deltaxz equal -0.02*xz
variable deltayz equal -0.02*yz
change_box all z delta 0 -0.453079365849994 remap units box
Changing box ...
  triclinic box = (-0.020057521 0.017408306 -0.12426097) to (6.8237575 6.1674067 22.076628) with tilt (2.6364745 -1.1230599 0.12486621)

# Run MD

run 1000
  update every 1 steps, delay 0 steps, check yes
Step Temp PotEng Press f_avp[1] f_avp[2] f_avp[3] f_avp[4] f_avp[5] f_avp[6]
0    283.36043    -573.6012     38963.13            0            0            0            0            0            0
Averages over the last 6 of 11 rows, steps 500 to 1000:
Temp PotEng Press f_avp[1] f_avp[2] f_avp[3] f_avp[4] f_avp[5] f_avp[6]
313.564 -574.318 19993 10204.8 25012.8 34799.7 3706.81 2529.63 -4013.18
Loop time of 104.118 on 1 procs for 1000 steps with 88 atoms

include potential.mod
# NOTE: This script can be modified for different pair styles
# See in.elastic for more info.

# we must undefine any fix ave/* fix before using reset_timestep
if "$(is_defined(fix,avp))" then "unfix avp"
unfix avp
reset_timestep 0

newton off

# Choose potential
# pair_style	sw
# pair_coeff * * Si.sw Si
pair_style	nequip
pair_coeff	* * tob11_l3-deployed.pth Ca H O Si

atom_modify sort 0 0.0
#kspace_style	ewald 1.0e-6# Setup neighbor style

neighbor 2.0 bin
neigh_modify once no every 1 delay 0 check yes

# Setup output

fix avp all ave/time  10 10 100 c_thermo_press mode vector

#min_style cg
#minimize 1.0e-15 1.0e-15 100000 100000 #设置能量最小化

thermo		100
thermo_style custom step temp pe press f_avp[1] f_avp[2] f_avp[3] f_avp[4] f_avp[5] f_avp[6]
thermo_modify norm no

# Setup MD

timestep 0.001
fix 4 all nve
fix 5 all langevin 300 300 0.01 123457

run 300
Step Temp PotEng Press f_avp[1] f_avp[2] f_avp[3] f_avp[4] f_avp[5] f_avp[6]
0    340.45058   -573.79944    13641.565            0            0            0            0            0            0
Loop time of 34.2771 on 1 procs for 300 steps with 88 atoms

# Obtain new stress tensor

variable pxx1 equal f_avp[1]
variable pyy1 equal f_avp[2]
variable pzz1 equal f_avp[3]
variable pxy1 equal f_avp[4]
variable pxz1 equal f_avp[5]
variable pyz1 equal f_avp[6]

# Compute elastic constant from pressure tensor

variable C1neg equal 39.5699611200704
variable C2neg equal 40.3594112947995
variable C3neg equal 104.825878977922
variable C4neg equal 2.79570776378995
variable C5neg equal 6.21762309004469
variable C6neg equal -24.4346697986568

# Reset box and simulation parameters

clear
box tilt large
read_restart restart.equil
Reading restart file ...
  restart file = 29 Sep 2021, LAMMPS = 29 Sep 2021
  restoring atom style atomic from restart
  triclinic box = (-0.020057521 0.017408306 -0.12426097) to (6.8237575 6.1674067 22.529707) with tilt (2.6364745 -1.1230599 0.12486621)
  pair style nequip stores no restart info
  88 atoms
  read_restart CPU = 0.000 seconds
include potential.mod
# NOTE: This script can be modified for different pair styles
# See in.elastic for more info.

# we must undefine any fix ave/* fix before using reset_timestep
if "$(is_defined(fix,avp))" then "unfix avp"
reset_timestep 0

newton off

# Choose potential
# pair_style	sw
# pair_coeff * * Si.sw Si
pair_style	nequip
pair_coeff	* * tob11_l3-deployed.pth Ca H O Si

atom_modify sort 0 0.0
#kspace_style	ewald 1.0e-6# Setup neighbor style

neighbor 2.0 bin
neigh_modify once no every 1 delay 0 check yes

# Setup output

fix avp all ave/time  10 10 100 c_thermo_press mode vector

#min_style cg
#minimize 1.0e-15 1.0e-15 100000 100000 #设置能量最小化

thermo		100
thermo_style custom step temp pe press f_avp[1] f_avp[2] f_avp[3] f_avp[4] f_avp[5] f_avp[6]
thermo_modify norm no

# Setup MD

timestep 0.001
fix 4 all nve
fix 5 all langevin 300 300 0.01 123457

# Positive deformation

variable delta equal 0.02*22.6539682924997
variable deltaxy equal 0.02*xy
variable deltaxz equal 0.02*xz
variable deltayz equal 0.02*yz
change_box all z delta 0 0.453079365849994 remap units box
Changing box ...
  triclinic box = (-0.020057521 0.017408306 -0.12426097) to (6.8237575 6.1674067 22.982787) with tilt (2.6364745 -1.1230599 0.12486621)

# Run MD

run 1000
  update every 1 steps, delay 0 steps, check yes
Step Temp PotEng Press f_avp[1] f_avp[2] f_avp[3] f_avp[4] f_avp[5] f_avp[6]
0    283.36043   -573.93066   -16008.314            0            0            0            0            0            0
Averages over the last 6 of 11 rows, steps 500 to 1000:
Temp PotEng Press f_avp[1] f_avp[2] f_avp[3] f_avp[4] f_avp[5] f_avp[6]
315.518 -574.29 -7279.42 -2864.78 5862.35 -14154 6978.09 3036.48 -4521.47
Loop time of 99.368 on 1 procs for 1000 steps with 88 atoms

include potential.mod
# NOTE: This script can be modified for different pair styles
# See in.elastic for more info.

# we must undefine any fix ave/* fix before using reset_timestep
if "$(is_defined(fix,avp))" then "unfix avp"
unfix avp
reset_timestep 0

newton off

# Choose potential
# pair_style	sw
# pair_coeff * * Si.sw Si
pair_style	nequip
pair_coeff	* * tob11_l3-deployed.pth Ca H O Si

atom_modify sort 0 0.0
#kspace_style	ewald 1.0e-6# Setup neighbor style

neighbor 2.0 bin
neigh_modify once no every 1 delay 0 check yes

# Setup output

fix avp all ave/time  10 10 100 c_thermo_press mode vector

#min_style cg
#minimize 1.0e-15 1.0e-15 100000 100000 #设置能量最小化

thermo		100
thermo_style custom step temp pe press f_avp[1] f_avp[2] f_avp[3] f_avp[4] f_avp[5] f_avp[6]
thermo_modify norm no

# Setup MD

timestep 0.001
fix 4 all nve
fix 5 all langevin 300 300 0.01 123457

run 300
Step Temp PotEng Press f_avp[1] f_avp[2] f_avp[3] f_avp[4] f_avp[5] f_avp[6]
0    341.74607   -573.84845   -12718.357            0            0            0            0            0            0
Loop time of 29.7007 on 1 procs for 300 steps with 88 atoms

# Obtain new stress tensor

variable pxx1 equal f_avp[1]
variable pyy1 equal f_avp[2]
variable pzz1 equal f_avp[3]
variable pxy1 equal f_avp[4]
variable pxz1 equal f_avp[5]
variable pyz1 equal f_avp[6]

# Compute elastic constant from pressure tensor

variable C1pos equal 30.2088699559117
variable C2pos equal 48.3473161144312
variable C3pos equal 124.759798979353
variable C4pos equal -5.78899874428495
variable C5pos equal -8.09220293118842
variable C6pos equal 8.283238058374

# Combine positive and negative

variable C13 equal 0.5*(39.5699611200704+30.2088699559117)
variable C23 equal 0.5*(40.3594112947995+48.3473161144312)
variable C33 equal 0.5*(104.825878977922+124.759798979353)
variable C43 equal 0.5*(2.79570776378995+-5.78899874428495)
variable C53 equal 0.5*(6.21762309004469+-8.09220293118842)
variable C63 equal 0.5*(-24.4346697986568+8.283238058374)

# Delete dir to make sure it is not reused

variable dir delete

# uyz Perturbation

variable dir equal 4
include displace.mod
# NOTE: This script should not need to be
# modified. See in.elastic for more info.
#
# Find which reference length to use

variable len0 equal 22.6539682924997

# Reset box and simulation parameters

clear
box tilt large
read_restart restart.equil
Reading restart file ...
  restart file = 29 Sep 2021, LAMMPS = 29 Sep 2021
  restoring atom style atomic from restart
  triclinic box = (-0.020057521 0.017408306 -0.12426097) to (6.8237575 6.1674067 22.529707) with tilt (2.6364745 -1.1230599 0.12486621)
  pair style nequip stores no restart info
  88 atoms
  read_restart CPU = 0.000 seconds
include potential.mod
# NOTE: This script can be modified for different pair styles
# See in.elastic for more info.

# we must undefine any fix ave/* fix before using reset_timestep
if "$(is_defined(fix,avp))" then "unfix avp"
reset_timestep 0

newton off

# Choose potential
# pair_style	sw
# pair_coeff * * Si.sw Si
pair_style	nequip
pair_coeff	* * tob11_l3-deployed.pth Ca H O Si

atom_modify sort 0 0.0
#kspace_style	ewald 1.0e-6# Setup neighbor style

neighbor 2.0 bin
neigh_modify once no every 1 delay 0 check yes

# Setup output

fix avp all ave/time  10 10 100 c_thermo_press mode vector

#min_style cg
#minimize 1.0e-15 1.0e-15 100000 100000 #设置能量最小化

thermo		100
thermo_style custom step temp pe press f_avp[1] f_avp[2] f_avp[3] f_avp[4] f_avp[5] f_avp[6]
thermo_modify norm no

# Setup MD

timestep 0.001
fix 4 all nve
fix 5 all langevin 300 300 0.01 123457

# Negative deformation

variable delta equal -0.02*22.6539682924997
variable deltaxy equal -0.02*xy
variable deltaxz equal -0.02*xz
variable deltayz equal -0.02*yz
change_box all yz delta -0.453079365849994 remap units box
Changing box ...
  triclinic box = (-0.020057521 0.017408306 -0.12426097) to (6.8237575 6.1674067 22.529707) with tilt (2.6364745 -1.1230599 -0.32821315)

# Run MD

run 1000
  update every 1 steps, delay 0 steps, check yes
Step Temp PotEng Press f_avp[1] f_avp[2] f_avp[3] f_avp[4] f_avp[5] f_avp[6]
0    283.36043   -573.96814    10468.184            0            0            0            0            0            0
Averages over the last 6 of 11 rows, steps 500 to 1000:
Temp PotEng Press f_avp[1] f_avp[2] f_avp[3] f_avp[4] f_avp[5] f_avp[6]
315.25 -574.437 6496.89 4060.07 16291.6 9395.54 5132.24 1215.33 1346.95
Loop time of 101.153 on 1 procs for 1000 steps with 88 atoms

include potential.mod
# NOTE: This script can be modified for different pair styles
# See in.elastic for more info.

# we must undefine any fix ave/* fix before using reset_timestep
if "$(is_defined(fix,avp))" then "unfix avp"
unfix avp
reset_timestep 0

newton off

# Choose potential
# pair_style	sw
# pair_coeff * * Si.sw Si
pair_style	nequip
pair_coeff	* * tob11_l3-deployed.pth Ca H O Si

atom_modify sort 0 0.0
#kspace_style	ewald 1.0e-6# Setup neighbor style

neighbor 2.0 bin
neigh_modify once no every 1 delay 0 check yes

# Setup output

fix avp all ave/time  10 10 100 c_thermo_press mode vector

#min_style cg
#minimize 1.0e-15 1.0e-15 100000 100000 #设置能量最小化

thermo		100
thermo_style custom step temp pe press f_avp[1] f_avp[2] f_avp[3] f_avp[4] f_avp[5] f_avp[6]
thermo_modify norm no

# Setup MD

timestep 0.001
fix 4 all nve
fix 5 all langevin 300 300 0.01 123457

run 300
Step Temp PotEng Press f_avp[1] f_avp[2] f_avp[3] f_avp[4] f_avp[5] f_avp[6]
0    344.37614   -573.94287     832.3244            0            0            0            0            0            0
Loop time of 29.3663 on 1 procs for 300 steps with 88 atoms

# Obtain new stress tensor

variable pxx1 equal f_avp[1]
variable pyy1 equal f_avp[2]
variable pzz1 equal f_avp[3]
variable pxy1 equal f_avp[4]
variable pxz1 equal f_avp[5]
variable pyz1 equal f_avp[6]

# Compute elastic constant from pressure tensor

variable C1neg equal 10.0681047945417
variable C2neg equal 3.22858343427651
variable C3neg equal -20.9893944322919
variable C4neg equal 27.4815054118273
variable C5neg equal 0.94773636990845
variable C6neg equal -14.6193227685273

# Reset box and simulation parameters

clear
box tilt large
read_restart restart.equil
Reading restart file ...
  restart file = 29 Sep 2021, LAMMPS = 29 Sep 2021
  restoring atom style atomic from restart
  triclinic box = (-0.020057521 0.017408306 -0.12426097) to (6.8237575 6.1674067 22.529707) with tilt (2.6364745 -1.1230599 0.12486621)
  pair style nequip stores no restart info
  88 atoms
  read_restart CPU = 0.000 seconds
include potential.mod
# NOTE: This script can be modified for different pair styles
# See in.elastic for more info.

# we must undefine any fix ave/* fix before using reset_timestep
if "$(is_defined(fix,avp))" then "unfix avp"
reset_timestep 0

newton off

# Choose potential
# pair_style	sw
# pair_coeff * * Si.sw Si
pair_style	nequip
pair_coeff	* * tob11_l3-deployed.pth Ca H O Si

atom_modify sort 0 0.0
#kspace_style	ewald 1.0e-6# Setup neighbor style

neighbor 2.0 bin
neigh_modify once no every 1 delay 0 check yes

# Setup output

fix avp all ave/time  10 10 100 c_thermo_press mode vector

#min_style cg
#minimize 1.0e-15 1.0e-15 100000 100000 #设置能量最小化

thermo		100
thermo_style custom step temp pe press f_avp[1] f_avp[2] f_avp[3] f_avp[4] f_avp[5] f_avp[6]
thermo_modify norm no

# Setup MD

timestep 0.001
fix 4 all nve
fix 5 all langevin 300 300 0.01 123457

# Positive deformation

variable delta equal 0.02*22.6539682924997
variable deltaxy equal 0.02*xy
variable deltaxz equal 0.02*xz
variable deltayz equal 0.02*yz
change_box all yz delta 0.453079365849994 remap units box
Changing box ...
  triclinic box = (-0.020057521 0.017408306 -0.12426097) to (6.8237575 6.1674067 22.529707) with tilt (2.6364745 -1.1230599 0.57794558)

# Run MD

run 1000
  update every 1 steps, delay 0 steps, check yes
Step Temp PotEng Press f_avp[1] f_avp[2] f_avp[3] f_avp[4] f_avp[5] f_avp[6]
0    283.36043   -573.95746    9111.9752            0            0            0            0            0            0
Averages over the last 6 of 11 rows, steps 500 to 1000:
Temp PotEng Press f_avp[1] f_avp[2] f_avp[3] f_avp[4] f_avp[5] f_avp[6]
315.203 -574.422 4449.31 2531.17 13845.2 7890.69 5900.44 4598.27 -9818.7
Loop time of 101.24 on 1 procs for 1000 steps with 88 atoms

include potential.mod
# NOTE: This script can be modified for different pair styles
# See in.elastic for more info.

# we must undefine any fix ave/* fix before using reset_timestep
if "$(is_defined(fix,avp))" then "unfix avp"
unfix avp
reset_timestep 0

newton off

# Choose potential
# pair_style	sw
# pair_coeff * * Si.sw Si
pair_style	nequip
pair_coeff	* * tob11_l3-deployed.pth Ca H O Si

atom_modify sort 0 0.0
#kspace_style	ewald 1.0e-6# Setup neighbor style

neighbor 2.0 bin
neigh_modify once no every 1 delay 0 check yes

# Setup output

fix avp all ave/time  10 10 100 c_thermo_press mode vector

#min_style cg
#minimize 1.0e-15 1.0e-15 100000 100000 #设置能量最小化

thermo		100
thermo_style custom step temp pe press f_avp[1] f_avp[2] f_avp[3] f_avp[4] f_avp[5] f_avp[6]
thermo_modify norm no

# Setup MD

timestep 0.001
fix 4 all nve
fix 5 all langevin 300 300 0.01 123457

run 300
Step Temp PotEng Press f_avp[1] f_avp[2] f_avp[3] f_avp[4] f_avp[5] f_avp[6]
0    339.37707   -573.89514   -1381.0555            0            0            0            0            0            0
Loop time of 33.7746 on 1 procs for 300 steps with 88 atoms

# Obtain new stress tensor

variable pxx1 equal f_avp[1]
variable pyy1 equal f_avp[2]
variable pzz1 equal f_avp[3]
variable pxy1 equal f_avp[4]
variable pxz1 equal f_avp[5]
variable pyz1 equal f_avp[6]

# Compute elastic constant from pressure tensor

variable C1pos equal 2.5065318707271
variable C2pos equal 16.1936562751604
variable C3pos equal 21.7033321949331
variable C4pos equal 24.4733608797631
variable C5pos equal -18.4322314514508
variable C6pos equal 15.784992934908

# Combine positive and negative

variable C14 equal 0.5*(10.0681047945417+2.5065318707271)
variable C24 equal 0.5*(3.22858343427651+16.1936562751604)
variable C34 equal 0.5*(-20.9893944322919+21.7033321949331)
variable C44 equal 0.5*(27.4815054118273+24.4733608797631)
variable C54 equal 0.5*(0.94773636990845+-18.4322314514508)
variable C64 equal 0.5*(-14.6193227685273+15.784992934908)

# Delete dir to make sure it is not reused

variable dir delete

# uxz Perturbation

variable dir equal 5
include displace.mod
# NOTE: This script should not need to be
# modified. See in.elastic for more info.
#
# Find which reference length to use

variable len0 equal 22.6539682924997

# Reset box and simulation parameters

clear
box tilt large
read_restart restart.equil
Reading restart file ...
  restart file = 29 Sep 2021, LAMMPS = 29 Sep 2021
  restoring atom style atomic from restart
  triclinic box = (-0.020057521 0.017408306 -0.12426097) to (6.8237575 6.1674067 22.529707) with tilt (2.6364745 -1.1230599 0.12486621)
  pair style nequip stores no restart info
  88 atoms
  read_restart CPU = 0.000 seconds
include potential.mod
# NOTE: This script can be modified for different pair styles
# See in.elastic for more info.

# we must undefine any fix ave/* fix before using reset_timestep
if "$(is_defined(fix,avp))" then "unfix avp"
reset_timestep 0

newton off

# Choose potential
# pair_style	sw
# pair_coeff * * Si.sw Si
pair_style	nequip
pair_coeff	* * tob11_l3-deployed.pth Ca H O Si

atom_modify sort 0 0.0
#kspace_style	ewald 1.0e-6# Setup neighbor style

neighbor 2.0 bin
neigh_modify once no every 1 delay 0 check yes

# Setup output

fix avp all ave/time  10 10 100 c_thermo_press mode vector

#min_style cg
#minimize 1.0e-15 1.0e-15 100000 100000 #设置能量最小化

thermo		100
thermo_style custom step temp pe press f_avp[1] f_avp[2] f_avp[3] f_avp[4] f_avp[5] f_avp[6]
thermo_modify norm no

# Setup MD

timestep 0.001
fix 4 all nve
fix 5 all langevin 300 300 0.01 123457

# Negative deformation

variable delta equal -0.02*22.6539682924997
variable deltaxy equal -0.02*xy
variable deltaxz equal -0.02*xz
variable deltayz equal -0.02*yz
change_box all xz delta -0.453079365849994 remap units box
Changing box ...
  triclinic box = (-0.020057521 0.017408306 -0.12426097) to (6.8237575 6.1674067 22.529707) with tilt (2.6364745 -1.5761393 0.12486621)

# Run MD

run 1000
  update every 1 steps, delay 0 steps, check yes
Step Temp PotEng Press f_avp[1] f_avp[2] f_avp[3] f_avp[4] f_avp[5] f_avp[6]
0    283.36043   -573.97003    9794.4993            0            0            0            0            0            0
Averages over the last 6 of 11 rows, steps 500 to 1000:
Temp PotEng Press f_avp[1] f_avp[2] f_avp[3] f_avp[4] f_avp[5] f_avp[6]
315.738 -574.413 5158.06 3646.65 14419 8417.17 5982.25 7184.07 -5752.06
Loop time of 101.474 on 1 procs for 1000 steps with 88 atoms

include potential.mod
# NOTE: This script can be modified for different pair styles
# See in.elastic for more info.

# we must undefine any fix ave/* fix before using reset_timestep
if "$(is_defined(fix,avp))" then "unfix avp"
unfix avp
reset_timestep 0

newton off

# Choose potential
# pair_style	sw
# pair_coeff * * Si.sw Si
pair_style	nequip
pair_coeff	* * tob11_l3-deployed.pth Ca H O Si

atom_modify sort 0 0.0
#kspace_style	ewald 1.0e-6# Setup neighbor style

neighbor 2.0 bin
neigh_modify once no every 1 delay 0 check yes

# Setup output

fix avp all ave/time  10 10 100 c_thermo_press mode vector

#min_style cg
#minimize 1.0e-15 1.0e-15 100000 100000 #设置能量最小化

thermo		100
thermo_style custom step temp pe press f_avp[1] f_avp[2] f_avp[3] f_avp[4] f_avp[5] f_avp[6]
thermo_modify norm no

# Setup MD

timestep 0.001
fix 4 all nve
fix 5 all langevin 300 300 0.01 123457

run 300
Step Temp PotEng Press f_avp[1] f_avp[2] f_avp[3] f_avp[4] f_avp[5] f_avp[6]
0     340.7762   -573.89771   -1133.5454            0            0            0            0            0            0
Loop time of 34.6636 on 1 procs for 300 steps with 88 atoms

# Obtain new stress tensor

variable pxx1 equal f_avp[1]
variable pyy1 equal f_avp[2]
variable pzz1 equal f_avp[3]
variable pxy1 equal f_avp[4]
variable pxz1 equal f_avp[5]
variable pyz1 equal f_avp[6]

# Compute elastic constant from pressure tensor

variable C1neg equal -0.431126727388365
variable C2neg equal -8.515428392533
variable C3neg equal -21.7493439267511
variable C4neg equal 1.40558321017355
variable C5neg equal 26.8584000094425
variable C6neg equal -13.3252789602339

# Reset box and simulation parameters

clear
box tilt large
read_restart restart.equil
Reading restart file ...
  restart file = 29 Sep 2021, LAMMPS = 29 Sep 2021
  restoring atom style atomic from restart
  triclinic box = (-0.020057521 0.017408306 -0.12426097) to (6.8237575 6.1674067 22.529707) with tilt (2.6364745 -1.1230599 0.12486621)
  pair style nequip stores no restart info
  88 atoms
  read_restart CPU = 0.000 seconds
include potential.mod
# NOTE: This script can be modified for different pair styles
# See in.elastic for more info.

# we must undefine any fix ave/* fix before using reset_timestep
if "$(is_defined(fix,avp))" then "unfix avp"
reset_timestep 0

newton off

# Choose potential
# pair_style	sw
# pair_coeff * * Si.sw Si
pair_style	nequip
pair_coeff	* * tob11_l3-deployed.pth Ca H O Si

atom_modify sort 0 0.0
#kspace_style	ewald 1.0e-6# Setup neighbor style

neighbor 2.0 bin
neigh_modify once no every 1 delay 0 check yes

# Setup output

fix avp all ave/time  10 10 100 c_thermo_press mode vector

#min_style cg
#minimize 1.0e-15 1.0e-15 100000 100000 #设置能量最小化

thermo		100
thermo_style custom step temp pe press f_avp[1] f_avp[2] f_avp[3] f_avp[4] f_avp[5] f_avp[6]
thermo_modify norm no

# Setup MD

timestep 0.001
fix 4 all nve
fix 5 all langevin 300 300 0.01 123457

# Positive deformation

variable delta equal 0.02*22.6539682924997
variable deltaxy equal 0.02*xy
variable deltaxz equal 0.02*xz
variable deltayz equal 0.02*yz
change_box all xz delta 0.453079365849994 remap units box
Changing box ...
  triclinic box = (-0.020057521 0.017408306 -0.12426097) to (6.8237575 6.1674067 22.529707) with tilt (2.6364745 -0.66998055 0.12486621)

# Run MD

run 1000
  update every 1 steps, delay 0 steps, check yes
Step Temp PotEng Press f_avp[1] f_avp[2] f_avp[3] f_avp[4] f_avp[5] f_avp[6]
0    283.36043   -573.94769    9855.9954            0            0            0            0            0            0
Averages over the last 6 of 11 rows, steps 500 to 1000:
Temp PotEng Press f_avp[1] f_avp[2] f_avp[3] f_avp[4] f_avp[5] f_avp[6]
314.169 -574.447 5883.47 3015.52 15797.7 8967.64 4926.21 -1423.97 -2766.11
Loop time of 100.952 on 1 procs for 1000 steps with 88 atoms

include potential.mod
# NOTE: This script can be modified for different pair styles
# See in.elastic for more info.

# we must undefine any fix ave/* fix before using reset_timestep
if "$(is_defined(fix,avp))" then "unfix avp"
unfix avp
reset_timestep 0

newton off

# Choose potential
# pair_style	sw
# pair_coeff * * Si.sw Si
pair_style	nequip
pair_coeff	* * tob11_l3-deployed.pth Ca H O Si

atom_modify sort 0 0.0
#kspace_style	ewald 1.0e-6# Setup neighbor style

neighbor 2.0 bin
neigh_modify once no every 1 delay 0 check yes

# Setup output

fix avp all ave/time  10 10 100 c_thermo_press mode vector

#min_style cg
#minimize 1.0e-15 1.0e-15 100000 100000 #设置能量最小化

thermo		100
thermo_style custom step temp pe press f_avp[1] f_avp[2] f_avp[3] f_avp[4] f_avp[5] f_avp[6]
thermo_modify norm no

# Setup MD

timestep 0.001
fix 4 all nve
fix 5 all langevin 300 300 0.01 123457

run 300
Step Temp PotEng Press f_avp[1] f_avp[2] f_avp[3] f_avp[4] f_avp[5] f_avp[6]
0    341.66948   -573.95013    47.839763            0            0            0            0            0            0
Loop time of 29.8261 on 1 procs for 300 steps with 88 atoms

# Obtain new stress tensor

variable pxx1 equal f_avp[1]
variable pyy1 equal f_avp[2]
variable pzz1 equal f_avp[3]
variable pxy1 equal f_avp[4]
variable pxz1 equal f_avp[5]
variable pyz1 equal f_avp[6]

# Compute elastic constant from pressure tensor

variable C1pos equal 1.04869578752795
variable C2pos equal 8.6095298921545
variable C3pos equal 21.5887259965714
variable C4pos equal -10.9422962520361
variable C5pos equal 11.2148650145992
variable C6pos equal 15.7810214741157

# Combine positive and negative

variable C15 equal 0.5*(-0.431126727388365+1.04869578752795)
variable C25 equal 0.5*(-8.515428392533+8.6095298921545)
variable C35 equal 0.5*(-21.7493439267511+21.5887259965714)
variable C45 equal 0.5*(1.40558321017355+-10.9422962520361)
variable C55 equal 0.5*(26.8584000094425+11.2148650145992)
variable C65 equal 0.5*(-13.3252789602339+15.7810214741157)

# Delete dir to make sure it is not reused

variable dir delete

# uxy Perturbation

variable dir equal 6
include displace.mod
# NOTE: This script should not need to be
# modified. See in.elastic for more info.
#
# Find which reference length to use

variable len0 equal 6.14999836103117

# Reset box and simulation parameters

clear
box tilt large
read_restart restart.equil
Reading restart file ...
  restart file = 29 Sep 2021, LAMMPS = 29 Sep 2021
  restoring atom style atomic from restart
  triclinic box = (-0.020057521 0.017408306 -0.12426097) to (6.8237575 6.1674067 22.529707) with tilt (2.6364745 -1.1230599 0.12486621)
  pair style nequip stores no restart info
  88 atoms
  read_restart CPU = 0.000 seconds
include potential.mod
# NOTE: This script can be modified for different pair styles
# See in.elastic for more info.

# we must undefine any fix ave/* fix before using reset_timestep
if "$(is_defined(fix,avp))" then "unfix avp"
reset_timestep 0

newton off

# Choose potential
# pair_style	sw
# pair_coeff * * Si.sw Si
pair_style	nequip
pair_coeff	* * tob11_l3-deployed.pth Ca H O Si

atom_modify sort 0 0.0
#kspace_style	ewald 1.0e-6# Setup neighbor style

neighbor 2.0 bin
neigh_modify once no every 1 delay 0 check yes

# Setup output

fix avp all ave/time  10 10 100 c_thermo_press mode vector

#min_style cg
#minimize 1.0e-15 1.0e-15 100000 100000 #设置能量最小化

thermo		100
thermo_style custom step temp pe press f_avp[1] f_avp[2] f_avp[3] f_avp[4] f_avp[5] f_avp[6]
thermo_modify norm no

# Setup MD

timestep 0.001
fix 4 all nve
fix 5 all langevin 300 300 0.01 123457

# Negative deformation

variable delta equal -0.02*6.14999836103117
variable deltaxy equal -0.02*xy
variable deltaxz equal -0.02*xz
variable deltayz equal -0.02*yz
change_box all xy delta -0.122999967220623 remap units box
Changing box ...
  triclinic box = (-0.020057521 0.017408306 -0.12426097) to (6.8237575 6.1674067 22.529707) with tilt (2.5134746 -1.1230599 0.12486621)

# Run MD

run 1000
  update every 1 steps, delay 0 steps, check yes
Step Temp PotEng Press f_avp[1] f_avp[2] f_avp[3] f_avp[4] f_avp[5] f_avp[6]
0    283.36043   -573.81653    11158.315            0            0            0            0            0            0
Averages over the last 6 of 11 rows, steps 500 to 1000:
Temp PotEng Press f_avp[1] f_avp[2] f_avp[3] f_avp[4] f_avp[5] f_avp[6]
315.318 -574.336 3998.17 2541.48 12737.6 7145.16 13634 3119.71 -4343.59
Loop time of 95.9828 on 1 procs for 1000 steps with 88 atoms

include potential.mod
# NOTE: This script can be modified for different pair styles
# See in.elastic for more info.

# we must undefine any fix ave/* fix before using reset_timestep
if "$(is_defined(fix,avp))" then "unfix avp"
unfix avp
reset_timestep 0

newton off

# Choose potential
# pair_style	sw
# pair_coeff * * Si.sw Si
pair_style	nequip
pair_coeff	* * tob11_l3-deployed.pth Ca H O Si

atom_modify sort 0 0.0
#kspace_style	ewald 1.0e-6# Setup neighbor style

neighbor 2.0 bin
neigh_modify once no every 1 delay 0 check yes

# Setup output

fix avp all ave/time  10 10 100 c_thermo_press mode vector

#min_style cg
#minimize 1.0e-15 1.0e-15 100000 100000 #设置能量最小化

thermo		100
thermo_style custom step temp pe press f_avp[1] f_avp[2] f_avp[3] f_avp[4] f_avp[5] f_avp[6]
thermo_modify norm no

# Setup MD

timestep 0.001
fix 4 all nve
fix 5 all langevin 300 300 0.01 123457

run 300
Step Temp PotEng Press f_avp[1] f_avp[2] f_avp[3] f_avp[4] f_avp[5] f_avp[6]
0    340.95542   -573.84497   -1389.3628            0            0            0            0            0            0
Loop time of 29.3716 on 1 procs for 300 steps with 88 atoms

# Obtain new stress tensor

variable pxx1 equal f_avp[1]
variable pyy1 equal f_avp[2]
variable pzz1 equal f_avp[3]
variable pxy1 equal f_avp[4]
variable pxz1 equal f_avp[5]
variable pyz1 equal f_avp[6]

# Compute elastic constant from pressure tensor

variable C1neg equal -2.60277424250359
variable C2neg equal -11.217584127943
variable C3neg equal -21.2915198839514
variable C4neg equal 1.68969068694081
variable C5neg equal 10.281176591961
variable C6neg equal 25.3958065513304

# Reset box and simulation parameters

clear
box tilt large
read_restart restart.equil
Reading restart file ...
  restart file = 29 Sep 2021, LAMMPS = 29 Sep 2021
  restoring atom style atomic from restart
  triclinic box = (-0.020057521 0.017408306 -0.12426097) to (6.8237575 6.1674067 22.529707) with tilt (2.6364745 -1.1230599 0.12486621)
  pair style nequip stores no restart info
  88 atoms
  read_restart CPU = 0.000 seconds
include potential.mod
# NOTE: This script can be modified for different pair styles
# See in.elastic for more info.

# we must undefine any fix ave/* fix before using reset_timestep
if "$(is_defined(fix,avp))" then "unfix avp"
reset_timestep 0

newton off

# Choose potential
# pair_style	sw
# pair_coeff * * Si.sw Si
pair_style	nequip
pair_coeff	* * tob11_l3-deployed.pth Ca H O Si

atom_modify sort 0 0.0
#kspace_style	ewald 1.0e-6# Setup neighbor style

neighbor 2.0 bin
neigh_modify once no every 1 delay 0 check yes

# Setup output

fix avp all ave/time  10 10 100 c_thermo_press mode vector

#min_style cg
#minimize 1.0e-15 1.0e-15 100000 100000 #设置能量最小化

thermo		100
thermo_style custom step temp pe press f_avp[1] f_avp[2] f_avp[3] f_avp[4] f_avp[5] f_avp[6]
thermo_modify norm no

# Setup MD

timestep 0.001
fix 4 all nve
fix 5 all langevin 300 300 0.01 123457

# Positive deformation

variable delta equal 0.02*6.14999836103117
variable deltaxy equal 0.02*xy
variable deltaxz equal 0.02*xz
variable deltayz equal 0.02*yz
change_box all xy delta 0.122999967220623 remap units box
Changing box ...
  triclinic box = (-0.020057521 0.017408306 -0.12426097) to (6.8237575 6.1674067 22.529707) with tilt (2.7594745 -1.1230599 0.12486621)

# Run MD

run 1000
  update every 1 steps, delay 0 steps, check yes
Step Temp PotEng Press f_avp[1] f_avp[2] f_avp[3] f_avp[4] f_avp[5] f_avp[6]
0    283.36043   -574.06683    8546.1917            0            0            0            0            0            0
Averages over the last 6 of 11 rows, steps 500 to 1000:
Temp PotEng Press f_avp[1] f_avp[2] f_avp[3] f_avp[4] f_avp[5] f_avp[6]
314.707 -574.486 6965.57 4145.43 17783.8 10271.7 -2820.85 2465.51 -4000.84
Loop time of 96.796 on 1 procs for 1000 steps with 88 atoms

include potential.mod
# NOTE: This script can be modified for different pair styles
# See in.elastic for more info.

# we must undefine any fix ave/* fix before using reset_timestep
if "$(is_defined(fix,avp))" then "unfix avp"
unfix avp
reset_timestep 0

newton off

# Choose potential
# pair_style	sw
# pair_coeff * * Si.sw Si
pair_style	nequip
pair_coeff	* * tob11_l3-deployed.pth Ca H O Si

atom_modify sort 0 0.0
#kspace_style	ewald 1.0e-6# Setup neighbor style

neighbor 2.0 bin
neigh_modify once no every 1 delay 0 check yes

# Setup output

fix avp all ave/time  10 10 100 c_thermo_press mode vector

#min_style cg
#minimize 1.0e-15 1.0e-15 100000 100000 #设置能量最小化

thermo		100
thermo_style custom step temp pe press f_avp[1] f_avp[2] f_avp[3] f_avp[4] f_avp[5] f_avp[6]
thermo_modify norm no

# Setup MD

timestep 0.001
fix 4 all nve
fix 5 all langevin 300 300 0.01 123457

run 300
Step Temp PotEng Press f_avp[1] f_avp[2] f_avp[3] f_avp[4] f_avp[5] f_avp[6]
0    339.80813   -573.95831    567.56162            0            0            0            0            0            0
Loop time of 33.8088 on 1 procs for 300 steps with 88 atoms

# Obtain new stress tensor

variable pxx1 equal f_avp[1]
variable pyy1 equal f_avp[2]
variable pzz1 equal f_avp[3]
variable pxy1 equal f_avp[4]
variable pxz1 equal f_avp[5]
variable pyz1 equal f_avp[6]

# Compute elastic constant from pressure tensor

variable C1pos equal -6.67619626257691
variable C2pos equal -2.75575332861051
variable C3pos equal 14.8597581384417
variable C4pos equal -4.98483729027912
variable C5pos equal -7.19158390517558
variable C6pos equal 56.922760991703

# Combine positive and negative

variable C16 equal 0.5*(-2.60277424250359+-6.67619626257691)
variable C26 equal 0.5*(-11.217584127943+-2.75575332861051)
variable C36 equal 0.5*(-21.2915198839514+14.8597581384417)
variable C46 equal 0.5*(1.68969068694081+-4.98483729027912)
variable C56 equal 0.5*(10.281176591961+-7.19158390517558)
variable C66 equal 0.5*(25.3958065513304+56.922760991703)

# Delete dir to make sure it is not reused

variable dir delete

# Output final values

variable C11all equal 102.789232151015
variable C22all equal 138.89557095561
variable C33all equal 114.792838978637

variable C12all equal 0.5*(51.857594465856+55.2170445973106)
variable C13all equal 0.5*(34.8894155379911+30.9811865255277)
variable C23all equal 0.5*(44.3533637046153+42.3564050730295)

variable C44all equal 25.9774331457952
variable C55all equal 19.0366325120209
variable C66all equal 41.1592837715167

variable C14all equal 0.5*(6.2873183326344+4.35622916297708)
variable C15all equal 0.5*(0.308784530069792+0.0613353863784347)
variable C16all equal 0.5*(-4.63948525254025+-2.36665584374335)

variable C24all equal 0.5*(9.71111985471845+9.57737920424571)
variable C25all equal 0.5*(0.04705074981075+-3.27970258776686)
variable C26all equal 0.5*(-6.98666872827676+-9.58637659483462)

variable C34all equal 0.5*(0.356968881320601+-1.4966454902475)
variable C35all equal 0.5*(-0.0803089650898485+-0.937289920571865)
variable C36all equal 0.5*(-3.21588087275485+-8.0757158701414)

variable C45all equal 0.5*(-4.76835652093127+-8.74224754077117)
variable C46all equal 0.5*(-1.64757330166915+0.58283508319035)
variable C56all equal 0.5*(1.54479634339271+1.2278712569409)

print "========================================="
=========================================
print "Components of the Elastic Constant Tensor"
Components of the Elastic Constant Tensor
print "========================================="
=========================================

Elastic Constant C11all = 102.789232151015 GPa
Elastic Constant C22all = 138.89557095561 GPa
Elastic Constant C33all = 114.792838978637 GPa

Elastic Constant C12all = 53.5373195315833 GPa
Elastic Constant C13all = 32.9353010317594 GPa
Elastic Constant C23all = 43.3548843888224 GPa

Elastic Constant C44all = 25.9774331457952 GPa
Elastic Constant C55all = 19.0366325120209 GPa
Elastic Constant C66all = 41.1592837715167 GPa

Elastic Constant C14all = 5.32177374780574 GPa
Elastic Constant C15all = 0.185059958224113 GPa
Elastic Constant C16all = -3.5030705481418 GPa

Elastic Constant C24all = 9.64424952948208 GPa
Elastic Constant C25all = -1.61632591897805 GPa
Elastic Constant C26all = -8.28652266155569 GPa

Elastic Constant C34all = -0.569838304463449 GPa
Elastic Constant C35all = -0.508799442830857 GPa
Elastic Constant C36all = -5.64579837144812 GPa

Elastic Constant C45all = -6.75530203085122 GPa
Elastic Constant C46all = -0.5323691092394 GPa
Elastic Constant C56all = 1.38633380016681 GPa

print " "

print "Cij tensor matrix"
Cij tensor matrix
print " "

write_restart restart2
System init for write_restart ...
